# generated using pymatgen
data_Sr2PrNbO6
_symmetry_space_group_name_H-M   'P 1'
_cell_length_a   8.49905430
_cell_length_b   8.49905430
_cell_length_c   8.49905430
_cell_angle_alpha   90.00000000
_cell_angle_beta   90.00000000
_cell_angle_gamma   90.00000000
_symmetry_Int_Tables_number   1
_chemical_formula_structural   Sr2PrNbO6
_chemical_formula_sum   'Sr8 Pr4 Nb4 O24'
_cell_volume   613.92004233
_cell_formula_units_Z   4
loop_
 _symmetry_equiv_pos_site_id
 _symmetry_equiv_pos_as_xyz
  1  'x, y, z'
loop_
 _atom_site_type_symbol
 _atom_site_label
 _atom_site_symmetry_multiplicity
 _atom_site_fract_x
 _atom_site_fract_y
 _atom_site_fract_z
 _atom_site_occupancy
  Sr  Sr0  1  0.50000000  0.50000000  0.50000000  1
  Sr  Sr1  1  -0.00000000  -0.00000000  0.00000000  1
  Sr  Sr2  1  -0.00000000  -0.00000000  0.50000000  1
  Sr  Sr3  1  -0.00000000  0.50000000  0.00000000  1
  Sr  Sr4  1  0.50000000  -0.00000000  0.00000000  1
  Sr  Sr5  1  0.50000000  0.50000000  0.00000000  1
  Sr  Sr6  1  0.50000000  -0.00000000  0.50000000  1
  Sr  Sr7  1  -0.00000000  0.50000000  0.50000000  1
  Pr  Pr8  1  0.25000000  0.25000000  0.25000000  1
  Pr  Pr9  1  0.25000000  0.75000000  0.75000000  1
  Pr  Pr10  1  0.75000000  0.25000000  0.75000000  1
  Pr  Pr11  1  0.75000000  0.75000000  0.25000000  1
  Nb  Nb12  1  0.75000000  0.75000000  0.75000000  1
  Nb  Nb13  1  0.75000000  0.25000000  0.25000000  1
  Nb  Nb14  1  0.25000000  0.75000000  0.25000000  1
  Nb  Nb15  1  0.25000000  0.25000000  0.75000000  1
  O  O16  1  0.21268922  0.29694092  0.52023390  1
  O  O17  1  0.21268922  0.70305908  0.47976610  1
  O  O18  1  0.78731078  0.29694092  0.47976610  1
  O  O19  1  0.78731078  0.70305908  0.52023390  1
  O  O20  1  0.29694092  0.52023390  0.21268922  1
  O  O21  1  0.70305908  0.47976610  0.21268922  1
  O  O22  1  0.29694092  0.47976610  0.78731078  1
  O  O23  1  0.70305908  0.52023390  0.78731078  1
  O  O24  1  0.52023390  0.21268922  0.29694092  1
  O  O25  1  0.47976610  0.21268922  0.70305908  1
  O  O26  1  0.47976610  0.78731078  0.29694092  1
  O  O27  1  0.52023390  0.78731078  0.70305908  1
  O  O28  1  0.28731078  0.20305908  0.97976610  1
  O  O29  1  0.28731078  0.79694092  0.02023390  1
  O  O30  1  0.71268922  0.20305908  0.02023390  1
  O  O31  1  0.71268922  0.79694092  0.97976610  1
  O  O32  1  0.20305908  0.97976610  0.28731078  1
  O  O33  1  0.79694092  0.02023390  0.28731078  1
  O  O34  1  0.20305908  0.02023390  0.71268922  1
  O  O35  1  0.79694092  0.97976610  0.71268922  1
  O  O36  1  0.97976610  0.28731078  0.20305908  1
  O  O37  1  0.02023390  0.28731078  0.79694092  1
  O  O38  1  0.02023390  0.71268922  0.20305908  1
  O  O39  1  0.97976610  0.71268922  0.79694092  1
