# generated using pymatgen
data_Sm2Si2O7
_symmetry_space_group_name_H-M   'P 1'
_cell_length_a   5.40274745
_cell_length_b   8.55712960
_cell_length_c   12.89311893
_cell_angle_alpha   90.59502170
_cell_angle_beta   91.38861791
_cell_angle_gamma   92.56657233
_symmetry_Int_Tables_number   1
_chemical_formula_structural   Sm2Si2O7
_chemical_formula_sum   'Sm8 Si8 O28'
_cell_volume   595.26272135
_cell_formula_units_Z   4
loop_
 _symmetry_equiv_pos_site_id
 _symmetry_equiv_pos_as_xyz
  1  'x, y, z'
loop_
 _atom_site_type_symbol
 _atom_site_label
 _atom_site_symmetry_multiplicity
 _atom_site_fract_x
 _atom_site_fract_y
 _atom_site_fract_z
 _atom_site_occupancy
  Sm  Sm0  1  0.25965563  0.89551430  0.08637797  1
  Sm  Sm1  1  0.74034437  0.10448570  0.91362203  1
  Sm  Sm2  1  0.76431843  0.70459393  0.26380784  1
  Sm  Sm3  1  0.23568157  0.29540607  0.73619216  1
  Sm  Sm4  1  0.75367986  0.59736195  0.59243897  1
  Sm  Sm5  1  0.24632014  0.40263805  0.40756103  1
  Sm  Sm6  1  0.22739968  0.82378770  0.76841157  1
  Sm  Sm7  1  0.77260032  0.17621230  0.23158843  1
  Si  Si8  1  0.78289504  0.49438932  0.82130061  1
  Si  Si9  1  0.21710496  0.50561068  0.17869939  1
  Si  Si10  1  0.20911383  0.75628378  0.48138638  1
  Si  Si11  1  0.79088617  0.24371622  0.51861362  1
  Si  Si12  1  0.70749759  0.75366749  0.97303340  1
  Si  Si13  1  0.29250241  0.24633251  0.02696660  1
  Si  Si14  1  0.29035598  0.00301683  0.32010794  1
  Si  Si15  1  0.70964402  0.99698317  0.67989206  1
  O  O16  1  0.70692533  0.57657008  0.92909252  1
  O  O17  1  0.29307467  0.42342992  0.07090748  1
  O  O18  1  0.96444951  0.85123630  0.94684012  1
  O  O19  1  0.03555049  0.14876370  0.05315988  1
  O  O20  1  0.54666485  0.48652082  0.74009931  1
  O  O21  1  0.45333515  0.51347918  0.25990069  1
  O  O22  1  0.45523398  0.65650778  0.47004146  1
  O  O23  1  0.54476602  0.34349222  0.52995854  1
  O  O24  1  0.24363218  0.93086130  0.43382310  1
  O  O25  1  0.75636782  0.06913870  0.56617690  1
  O  O26  1  0.10988269  0.76933003  0.59774687  1
  O  O27  1  0.89011731  0.23066997  0.40225313  1
  O  O28  1  0.88831652  0.32386452  0.84137695  1
  O  O29  1  0.11168348  0.67613548  0.15862305  1
  O  O30  1  0.63593199  0.75963759  0.09340063  1
  O  O31  1  0.36406801  0.24036241  0.90659937  1
  O  O32  1  0.00835660  0.35395813  0.58085475  1
  O  O33  1  0.99164340  0.64604187  0.41914525  1
  O  O34  1  0.51260954  0.14241856  0.08055058  1
  O  O35  1  0.48739046  0.85758144  0.91944942  1
  O  O36  1  0.48846971  0.08244995  0.73920665  1
  O  O37  1  0.51153029  0.91755005  0.26079335  1
  O  O38  1  0.61779482  0.81475439  0.67995794  1
  O  O39  1  0.38220518  0.18524561  0.32004206  1
  O  O40  1  0.96092377  0.03024671  0.75301161  1
  O  O41  1  0.03907623  0.96975329  0.24698839  1
  O  O42  1  0.99326131  0.41234343  0.23700288  1
  O  O43  1  0.00673869  0.58765657  0.76299712  1
