# generated using pymatgen
data_Ho2Si2O7
_symmetry_space_group_name_H-M   'P 1'
_cell_length_a   5.01757490
_cell_length_b   8.09082588
_cell_length_c   13.59636894
_cell_angle_alpha   90.00000000
_cell_angle_beta   90.00000000
_cell_angle_gamma   90.00000000
_symmetry_Int_Tables_number   1
_chemical_formula_structural   Ho2Si2O7
_chemical_formula_sum   'Ho8 Si8 O28'
_cell_volume   551.96261035
_cell_formula_units_Z   4
loop_
 _symmetry_equiv_pos_site_id
 _symmetry_equiv_pos_as_xyz
  1  'x, y, z'
loop_
 _atom_site_type_symbol
 _atom_site_label
 _atom_site_symmetry_multiplicity
 _atom_site_fract_x
 _atom_site_fract_y
 _atom_site_fract_z
 _atom_site_occupancy
  Ho  Ho0  1  0.84115683  0.51005495  0.62552850  1
  Ho  Ho1  1  0.15884317  0.01005495  0.37447150  1
  Ho  Ho2  1  0.65884317  0.51005495  0.12552850  1
  Ho  Ho3  1  0.34115683  0.01005495  0.87447150  1
  Ho  Ho4  1  0.84115683  0.98994505  0.62552850  1
  Ho  Ho5  1  0.15884317  0.48994505  0.37447150  1
  Ho  Ho6  1  0.65884317  0.98994505  0.12552850  1
  Ho  Ho7  1  0.34115683  0.48994505  0.87447150  1
  Si  Si8  1  0.12432654  0.25000000  0.04134268  1
  Si  Si9  1  0.87567346  0.75000000  0.95865732  1
  Si  Si10  1  0.37567346  0.25000000  0.54134268  1
  Si  Si11  1  0.62432654  0.75000000  0.45865732  1
  Si  Si12  1  0.87926819  0.25000000  0.81823785  1
  Si  Si13  1  0.12073181  0.75000000  0.18176215  1
  Si  Si14  1  0.62073181  0.25000000  0.31823785  1
  Si  Si15  1  0.37926819  0.75000000  0.68176215  1
  O  O16  1  0.84571980  0.25000000  0.10101371  1
  O  O17  1  0.15428020  0.75000000  0.89898629  1
  O  O18  1  0.65428020  0.25000000  0.60101371  1
  O  O19  1  0.34571980  0.75000000  0.39898629  1
  O  O20  1  0.29168766  0.42009251  0.04839177  1
  O  O21  1  0.70831234  0.92009251  0.95160823  1
  O  O22  1  0.20831234  0.42009251  0.54839177  1
  O  O23  1  0.79168766  0.92009251  0.45160823  1
  O  O24  1  0.29168766  0.07990749  0.04839177  1
  O  O25  1  0.70831234  0.57990749  0.95160823  1
  O  O26  1  0.20831234  0.07990749  0.54839177  1
  O  O27  1  0.79168766  0.57990749  0.45160823  1
  O  O28  1  0.06297714  0.25000000  0.92022232  1
  O  O29  1  0.93702286  0.75000000  0.07977768  1
  O  O30  1  0.43702286  0.25000000  0.42022232  1
  O  O31  1  0.56297714  0.75000000  0.57977768  1
  O  O32  1  0.49153132  0.58459279  0.73351477  1
  O  O33  1  0.50846868  0.08459279  0.26648523  1
  O  O34  1  0.00846868  0.58459279  0.23351477  1
  O  O35  1  0.99153132  0.08459279  0.76648523  1
  O  O36  1  0.49153132  0.91540721  0.73351477  1
  O  O37  1  0.50846868  0.41540721  0.26648523  1
  O  O38  1  0.00846868  0.91540721  0.23351477  1
  O  O39  1  0.99153132  0.41540721  0.76648523  1
  O  O40  1  0.06680026  0.75000000  0.65532711  1
  O  O41  1  0.93319974  0.25000000  0.34467289  1
  O  O42  1  0.43319974  0.75000000  0.15532711  1
  O  O43  1  0.56680026  0.25000000  0.84467289  1
