# generated using pymatgen
data_NaP(HO2)2
_symmetry_space_group_name_H-M   'P 1'
_cell_length_a   6.76293598
_cell_length_b   7.22018392
_cell_length_c   13.27095057
_cell_angle_alpha   90.00000000
_cell_angle_beta   90.00000000
_cell_angle_gamma   92.92332164
_symmetry_Int_Tables_number   1
_chemical_formula_structural   NaP(HO2)2
_chemical_formula_sum   'Na8 P8 H16 O32'
_cell_volume   647.17248493
_cell_formula_units_Z   8
loop_
 _symmetry_equiv_pos_site_id
 _symmetry_equiv_pos_as_xyz
  1  'x, y, z'
loop_
 _atom_site_type_symbol
 _atom_site_label
 _atom_site_symmetry_multiplicity
 _atom_site_fract_x
 _atom_site_fract_y
 _atom_site_fract_z
 _atom_site_occupancy
  Na  Na0  1  0.14074703  -0.00018014  0.59824722  1
  Na  Na1  1  0.85925297  0.50018014  0.09824722  1
  Na  Na2  1  0.85925297  0.00018014  0.40175278  1
  Na  Na3  1  0.14074703  0.49981986  0.90175278  1
  Na  Na4  1  0.64301208  0.73523111  0.60069479  1
  Na  Na5  1  0.35698792  0.76476889  0.10069479  1
  Na  Na6  1  0.35698792  0.26476889  0.39930521  1
  Na  Na7  1  0.64301208  0.23523111  0.89930521  1
  P  P8  1  0.67043585  0.14464364  0.63140594  1
  P  P9  1  0.32956415  0.35535636  0.13140594  1
  P  P10  1  0.32956415  0.85535636  0.36859406  1
  P  P11  1  0.67043585  0.64464364  0.86859406  1
  P  P12  1  0.17383402  0.48479632  0.63025275  1
  P  P13  1  0.82616598  0.01520368  0.13025175  1
  P  P14  1  0.82616598  0.51520368  0.36974825  1
  P  P15  1  0.17383402  0.98479632  0.86974725  1
  H  H16  1  0.99386535  0.15857976  0.96964069  1
  H  H17  1  0.00613465  0.34142024  0.46964069  1
  H  H18  1  0.00613465  0.84142024  0.03035931  1
  H  H19  1  0.99386535  0.65857976  0.53035931  1
  H  H20  1  0.94206617  0.84571042  0.77196429  1
  H  H21  1  0.05793383  0.65428958  0.27196429  1
  H  H22  1  0.05793383  0.15428958  0.22803571  1
  H  H23  1  0.94206617  0.34571042  0.72803571  1
  H  H24  1  0.51215059  0.88656368  0.90541280  1
  H  H25  1  0.48784941  0.61343632  0.40541280  1
  H  H26  1  0.48784941  0.11343632  0.09458720  1
  H  H27  1  0.51215059  0.38656368  0.59458720  1
  H  H28  1  0.44535217  0.52099695  0.76537006  1
  H  H29  1  0.55464783  0.97900305  0.26537006  1
  H  H30  1  0.55464783  0.47900305  0.23462994  1
  H  H31  1  0.44535217  0.02099695  0.73462994  1
  O  O32  1  0.47663222  0.52098331  0.84045973  1
  O  O33  1  0.24953292  0.26535507  0.22629060  1
  O  O34  1  0.24953292  0.76535507  0.27370940  1
  O  O35  1  0.75046708  0.73464493  0.77370940  1
  O  O36  1  0.47663222  0.02098331  0.65954027  1
  O  O37  1  0.52336778  0.47901669  0.15954027  1
  O  O38  1  0.52336778  0.97901669  0.34045973  1
  O  O39  1  0.75046708  0.23464493  0.72629060  1
  O  O40  1  0.80194063  0.02524828  0.57201187  1
  O  O41  1  0.19805937  0.47475172  0.07201187  1
  O  O42  1  0.19805937  0.97475172  0.42798813  1
  O  O43  1  0.80194063  0.52524828  0.92798813  1
  O  O44  1  0.59401501  0.29678638  0.55700547  1
  O  O45  1  0.40598499  0.20321362  0.05700547  1
  O  O46  1  0.40598499  0.70321362  0.44299453  1
  O  O47  1  0.59401501  0.79678638  0.94299453  1
  O  O48  1  0.39010456  0.03073324  0.84499458  1
  O  O49  1  0.92356062  0.07948986  0.23170859  1
  O  O50  1  0.92356062  0.57948986  0.26829141  1
  O  O51  1  0.07643938  0.92051014  0.76829141  1
  O  O52  1  0.14808849  0.33501228  0.55112240  1
  O  O53  1  0.85191151  0.16498772  0.05112240  1
  O  O54  1  0.85191151  0.66498772  0.44887760  1
  O  O55  1  0.14808849  0.83501228  0.94887760  1
  O  O56  1  0.07405107  0.66456922  0.59651801  1
  O  O57  1  0.92594893  0.83543078  0.09651801  1
  O  O58  1  0.92594893  0.33543078  0.40348199  1
  O  O59  1  0.07405107  0.16456922  0.90348199  1
  O  O60  1  0.39010456  0.53073324  0.65500542  1
  O  O61  1  0.60989544  0.96926676  0.15500542  1
  O  O62  1  0.60989544  0.46926676  0.34499458  1
  O  O63  1  0.07643938  0.42051014  0.73170859  1
