# generated using pymatgen
data_BaB4O7
_symmetry_space_group_name_H-M   'P 1'
_cell_length_a   8.27009557
_cell_length_b   10.58421085
_cell_length_c   13.08056046
_cell_angle_alpha   75.14091617
_cell_angle_beta   90.00000000
_cell_angle_gamma   90.00000000
_symmetry_Int_Tables_number   1
_chemical_formula_structural   BaB4O7
_chemical_formula_sum   'Ba8 B32 O56'
_cell_volume   1106.68478268
_cell_formula_units_Z   8
loop_
 _symmetry_equiv_pos_site_id
 _symmetry_equiv_pos_as_xyz
  1  'x, y, z'
loop_
 _atom_site_type_symbol
 _atom_site_label
 _atom_site_symmetry_multiplicity
 _atom_site_fract_x
 _atom_site_fract_y
 _atom_site_fract_z
 _atom_site_occupancy
  Ba  Ba0  1  0.61700143  0.10533082  0.29631157  1
  Ba  Ba1  1  0.11700143  0.89466918  0.20368843  1
  Ba  Ba2  1  0.38299857  0.89466918  0.70368843  1
  Ba  Ba3  1  0.88299857  0.10533082  0.79631157  1
  Ba  Ba4  1  0.23936670  0.46062958  0.39460570  1
  Ba  Ba5  1  0.73936670  0.53937042  0.10539430  1
  Ba  Ba6  1  0.76063330  0.53937042  0.60539430  1
  Ba  Ba7  1  0.26063330  0.46062958  0.89460570  1
  B  B8  1  0.71517576  0.01126826  0.55221980  1
  B  B9  1  0.08993266  0.13738978  0.49318448  1
  B  B10  1  0.58993266  0.86261022  0.00681552  1
  B  B11  1  0.91006734  0.86261022  0.50681552  1
  B  B12  1  0.41006734  0.13738978  0.99318448  1
  B  B13  1  0.82525847  0.39653363  0.39279083  1
  B  B14  1  0.32525847  0.60346637  0.10720917  1
  B  B15  1  0.17474153  0.60346637  0.60720917  1
  B  B16  1  0.67474153  0.39653363  0.89279083  1
  B  B17  1  0.21517576  0.98873174  0.94778020  1
  B  B18  1  0.28482424  0.98873174  0.44778020  1
  B  B19  1  0.78482424  0.01126826  0.05221980  1
  B  B20  1  0.30691613  0.18196032  0.80579767  1
  B  B21  1  0.80691613  0.81803968  0.69420233  1
  B  B22  1  0.69308387  0.81803968  0.19420233  1
  B  B23  1  0.19308387  0.18196032  0.30579767  1
  B  B24  1  0.63380944  0.24653625  0.51542940  1
  B  B25  1  0.13380944  0.75346375  0.98457060  1
  B  B26  1  0.36619056  0.75346375  0.48457060  1
  B  B27  1  0.86619056  0.24653625  0.01542940  1
  B  B28  1  0.38077390  0.27833930  0.61872942  1
  B  B29  1  0.88077390  0.72166070  0.88127058  1
  B  B30  1  0.61922610  0.72166070  0.38127058  1
  B  B31  1  0.11922610  0.27833930  0.11872942  1
  B  B32  1  0.13435573  0.36745119  0.68843215  1
  B  B33  1  0.63435573  0.63254881  0.81156785  1
  B  B34  1  0.86564427  0.63254881  0.31156785  1
  B  B35  1  0.36564427  0.36745119  0.18843215  1
  B  B36  1  0.91551581  0.28805297  0.57388128  1
  B  B37  1  0.41551581  0.71194703  0.92611872  1
  B  B38  1  0.08448419  0.71194703  0.42611872  1
  B  B39  1  0.58448419  0.28805297  0.07388128  1
  O  O40  1  0.25061771  0.36108821  0.60561751  1
  O  O41  1  0.80703195  0.31606465  0.90656029  1
  O  O42  1  0.30703195  0.68393535  0.59343971  1
  O  O43  1  0.19296805  0.68393535  0.09343971  1
  O  O44  1  0.69296805  0.31606465  0.40656029  1
  O  O45  1  0.41586512  0.20429643  0.88953352  1
  O  O46  1  0.91586512  0.79570357  0.61046648  1
  O  O47  1  0.58413488  0.79570357  0.11046648  1
  O  O48  1  0.74549603  0.25865299  0.59735569  1
  O  O49  1  0.24549603  0.74134701  0.90264431  1
  O  O50  1  0.25450397  0.74134701  0.40264431  1
  O  O51  1  0.75450397  0.25865299  0.09735569  1
  O  O52  1  0.60608065  0.10800111  0.51443156  1
  O  O53  1  0.10608065  0.89199889  0.98556844  1
  O  O54  1  0.39391935  0.89199889  0.48556844  1
  O  O55  1  0.89391935  0.10800111  0.01443156  1
  O  O56  1  0.47812198  0.30346264  0.53140817  1
  O  O57  1  0.97812198  0.69653736  0.96859183  1
  O  O58  1  0.52187802  0.69653736  0.46859183  1
  O  O59  1  0.02187802  0.30346264  0.03140817  1
  O  O60  1  0.40191422  0.18137200  0.71017900  1
  O  O61  1  0.90191422  0.81862800  0.78982100  1
  O  O62  1  0.59808578  0.81862800  0.28982100  1
  O  O63  1  0.09808578  0.18137200  0.21017900  1
  O  O64  1  0.22821543  0.04921972  0.84255079  1
  O  O65  1  0.72821543  0.95078028  0.65744921  1
  O  O66  1  0.77178457  0.95078028  0.15744921  1
  O  O67  1  0.27178457  0.04921972  0.34255079  1
  O  O68  1  0.64432002  0.49231148  0.80098930  1
  O  O69  1  0.14432002  0.50768852  0.69901070  1
  O  O70  1  0.35567998  0.50768852  0.19901070  1
  O  O71  1  0.85567998  0.49231148  0.30098930  1
  O  O72  1  0.08413488  0.20429643  0.38953352  1
  O  O73  1  0.75061771  0.63891179  0.89438249  1
  O  O74  1  0.74938229  0.63891179  0.39438249  1
  O  O75  1  0.24938229  0.36108821  0.10561751  1
  O  O76  1  0.19572598  0.03056594  0.52328498  1
  O  O77  1  0.69572598  0.96943406  0.97671502  1
  O  O78  1  0.80427402  0.96943406  0.47671502  1
  O  O79  1  0.30427402  0.03056594  0.02328498  1
  O  O80  1  0.52838506  0.33751088  0.16185443  1
  O  O81  1  0.50521451  0.83358173  0.92749945  1
  O  O82  1  0.99478549  0.83358173  0.42749945  1
  O  O83  1  0.49478549  0.16641827  0.07250055  1
  O  O84  1  0.18054972  0.27928721  0.78878410  1
  O  O85  1  0.68054972  0.72071279  0.71121590  1
  O  O86  1  0.81945028  0.72071279  0.21121590  1
  O  O87  1  0.31945028  0.27928721  0.28878410  1
  O  O88  1  0.56712504  0.38830101  0.97423082  1
  O  O89  1  0.06712504  0.61169899  0.52576918  1
  O  O90  1  0.43287496  0.61169899  0.02576918  1
  O  O91  1  0.93287496  0.38830101  0.47423082  1
  O  O92  1  0.97161494  0.33751088  0.66185443  1
  O  O93  1  0.47161494  0.66248912  0.83814557  1
  O  O94  1  0.02838506  0.66248912  0.33814557  1
  O  O95  1  0.00521451  0.16641827  0.57250055  1
