# generated using pymatgen
data_H4SO5
_symmetry_space_group_name_H-M   'P 1'
_cell_length_a   6.94261559
_cell_length_b   7.09939745
_cell_length_c   8.01862810
_cell_angle_alpha   72.67283976
_cell_angle_beta   90.00000000
_cell_angle_gamma   90.00000000
_symmetry_Int_Tables_number   1
_chemical_formula_structural   H4SO5
_chemical_formula_sum   'H16 S4 O20'
_cell_volume   377.28981846
_cell_formula_units_Z   4
loop_
 _symmetry_equiv_pos_site_id
 _symmetry_equiv_pos_as_xyz
  1  'x, y, z'
loop_
 _atom_site_type_symbol
 _atom_site_label
 _atom_site_symmetry_multiplicity
 _atom_site_fract_x
 _atom_site_fract_y
 _atom_site_fract_z
 _atom_site_occupancy
  H  H0  1  0.33634629  0.77031549  0.29248456  1
  H  H1  1  0.83634629  0.22968451  0.20751544  1
  H  H2  1  0.66365371  0.22968451  0.70751544  1
  H  H3  1  0.16365371  0.77031549  0.79248456  1
  H  H4  1  0.88023858  0.27775674  0.77936491  1
  H  H5  1  0.38023858  0.72224326  0.72063509  1
  H  H6  1  0.19684637  0.59215987  0.41512560  1
  H  H7  1  0.69684637  0.40784013  0.08487440  1
  H  H8  1  0.80315363  0.40784013  0.58487440  1
  H  H9  1  0.30315363  0.59215987  0.91512560  1
  H  H10  1  0.81382570  0.89916317  0.60757984  1
  H  H11  1  0.31382570  0.10083683  0.89242016  1
  H  H12  1  0.18617430  0.10083683  0.39242016  1
  H  H13  1  0.68617430  0.89916317  0.10757984  1
  H  H14  1  0.11976142  0.72224326  0.22063509  1
  H  H15  1  0.61976142  0.27775674  0.27936491  1
  S  S16  1  0.65390942  0.74924633  0.45854275  1
  S  S17  1  0.15390942  0.25075367  0.04145725  1
  S  S18  1  0.34609058  0.25075367  0.54145725  1
  S  S19  1  0.84609058  0.74924633  0.95854275  1
  O  O20  1  0.51039954  0.66052760  0.58952344  1
  O  O21  1  0.76279159  0.93661415  0.99553895  1
  O  O22  1  0.23720841  0.06338585  0.00446105  1
  O  O23  1  0.73720841  0.93661415  0.49553895  1
  O  O24  1  0.29962704  0.72759382  0.82399108  1
  O  O25  1  0.79962704  0.27240618  0.67600892  1
  O  O26  1  0.70037296  0.27240618  0.17600892  1
  O  O27  1  0.20037296  0.72759382  0.32399108  1
  O  O28  1  0.48960046  0.33947240  0.41047656  1
  O  O29  1  0.98960046  0.66052760  0.08952344  1
  O  O30  1  0.81350594  0.61707065  0.45893256  1
  O  O31  1  0.31350594  0.38292935  0.04106744  1
  O  O32  1  0.18649406  0.38292935  0.54106744  1
  O  O33  1  0.68649406  0.61707065  0.95893256  1
  O  O34  1  0.56558497  0.82908527  0.28514980  1
  O  O35  1  0.06558497  0.17091473  0.21485020  1
  O  O36  1  0.43441503  0.17091473  0.71485020  1
  O  O37  1  0.93441503  0.82908527  0.78514980  1
  O  O38  1  0.26279159  0.06338585  0.50446105  1
  O  O39  1  0.01039954  0.33947240  0.91047656  1
