# generated using pymatgen
data_Ta2MnO6
_symmetry_space_group_name_H-M   'P 1'
_cell_length_a   4.73144776
_cell_length_b   5.14386992
_cell_length_c   17.21707289
_cell_angle_alpha   90.00000000
_cell_angle_beta   90.00000000
_cell_angle_gamma   90.00000000
_symmetry_Int_Tables_number   1
_chemical_formula_structural   Ta2MnO6
_chemical_formula_sum   'Ta8 Mn4 O24'
_cell_volume   419.02829032
_cell_formula_units_Z   4
loop_
 _symmetry_equiv_pos_site_id
 _symmetry_equiv_pos_as_xyz
  1  'x, y, z'
loop_
 _atom_site_type_symbol
 _atom_site_label
 _atom_site_symmetry_multiplicity
 _atom_site_fract_x
 _atom_site_fract_y
 _atom_site_fract_z
 _atom_site_occupancy
  Ta  Ta0  1  -0.00000000  0.25000000  0.21906423  1
  Ta  Ta1  1  -0.00000000  0.25000000  0.55411068  1
  Ta  Ta2  1  0.50000000  0.75000000  0.28093577  1
  Ta  Ta3  1  0.50000000  0.75000000  0.94588932  1
  Ta  Ta4  1  0.50000000  0.25000000  0.05411068  1
  Ta  Ta5  1  0.50000000  0.25000000  0.71906423  1
  Ta  Ta6  1  -0.00000000  0.75000000  0.44588932  1
  Ta  Ta7  1  -0.00000000  0.75000000  0.78093577  1
  Mn  Mn8  1  -0.00000000  0.25000000  0.89288289  1
  Mn  Mn9  1  0.50000000  0.75000000  0.60711711  1
  Mn  Mn10  1  0.50000000  0.25000000  0.39288289  1
  Mn  Mn11  1  -0.00000000  0.75000000  0.10711711  1
  O  O12  1  0.23252305  0.10809426  0.12900720  1
  O  O13  1  0.21787840  0.06972398  0.46515683  1
  O  O14  1  0.23708533  0.07333373  0.78811438  1
  O  O15  1  0.26291467  0.07333373  0.28811438  1
  O  O16  1  0.26747695  0.10809426  0.62900720  1
  O  O17  1  0.28212160  0.06972398  0.96515683  1
  O  O18  1  0.23708533  0.57333373  0.21188562  1
  O  O19  1  0.21787840  0.56972398  0.53484317  1
  O  O20  1  0.23252305  0.60809426  0.87099280  1
  O  O21  1  0.28212160  0.56972398  0.03484317  1
  O  O22  1  0.26747695  0.60809426  0.37099280  1
  O  O23  1  0.26291467  0.57333373  0.71188562  1
  O  O24  1  0.73708533  0.42666627  0.28811438  1
  O  O25  1  0.73252305  0.39190574  0.62900720  1
  O  O26  1  0.71787840  0.43027602  0.96515683  1
  O  O27  1  0.76747695  0.39190574  0.12900720  1
  O  O28  1  0.78212160  0.43027602  0.46515683  1
  O  O29  1  0.76291467  0.42666627  0.78811438  1
  O  O30  1  0.71787840  0.93027602  0.03484317  1
  O  O31  1  0.73252305  0.89190574  0.37099280  1
  O  O32  1  0.73708533  0.92666627  0.71188562  1
  O  O33  1  0.76291467  0.92666627  0.21188562  1
  O  O34  1  0.78212160  0.93027602  0.53484317  1
  O  O35  1  0.76747695  0.89190574  0.87099280  1
