# generated using pymatgen
data_Ca2P2O7
_symmetry_space_group_name_H-M   'P 1'
_cell_length_a   6.66605660
_cell_length_b   6.66605660
_cell_length_c   24.10239256
_cell_angle_alpha   90.00000000
_cell_angle_beta   90.00000000
_cell_angle_gamma   90.00000000
_symmetry_Int_Tables_number   1
_chemical_formula_structural   Ca2P2O7
_chemical_formula_sum   'Ca16 P16 O56'
_cell_volume   1071.02140313
_cell_formula_units_Z   8
loop_
 _symmetry_equiv_pos_site_id
 _symmetry_equiv_pos_as_xyz
  1  'x, y, z'
loop_
 _atom_site_type_symbol
 _atom_site_label
 _atom_site_symmetry_multiplicity
 _atom_site_fract_x
 _atom_site_fract_y
 _atom_site_fract_z
 _atom_site_occupancy
  Ca  Ca0  1  0.63374437  0.89415442  0.63525340  1
  Ca  Ca1  1  0.10584558  0.63374437  0.88525340  1
  Ca  Ca2  1  0.89415442  0.36625563  0.38525340  1
  Ca  Ca3  1  0.36625563  0.10584558  0.13525340  1
  Ca  Ca4  1  0.20555922  0.26065891  0.63771822  1
  Ca  Ca5  1  0.73934109  0.20555922  0.88771822  1
  Ca  Ca6  1  0.26065891  0.79444078  0.38771822  1
  Ca  Ca7  1  0.79444078  0.73934109  0.13771822  1
  Ca  Ca8  1  0.84466364  0.45006764  0.74211560  1
  Ca  Ca9  1  0.54993236  0.84466364  0.99211560  1
  Ca  Ca10  1  0.45006764  0.15533636  0.49211560  1
  Ca  Ca11  1  0.15533636  0.54993236  0.24211560  1
  Ca  Ca12  1  0.85670022  0.76769953  0.49979629  1
  Ca  Ca13  1  0.23230047  0.85670022  0.74979629  1
  Ca  Ca14  1  0.76769953  0.14329978  0.24979629  1
  Ca  Ca15  1  0.14329978  0.23230047  -0.00020371  1
  P  P16  1  0.70842449  0.35225295  0.62093344  1
  P  P17  1  0.64774705  0.70842449  0.87093344  1
  P  P18  1  0.35225295  0.29157551  0.37093344  1
  P  P19  1  0.29157551  0.64774705  0.12093344  1
  P  P20  1  0.94956970  0.28351525  0.51853398  1
  P  P21  1  0.71648475  0.94956970  0.76853398  1
  P  P22  1  0.28351525  0.05043030  0.26853398  1
  P  P23  1  0.05043030  0.71648475  0.01853398  1
  P  P24  1  0.12800566  0.74164693  0.62456297  1
  P  P25  1  0.25835307  0.12800566  0.87456297  1
  P  P26  1  0.74164693  0.87199434  0.37456297  1
  P  P27  1  0.87199434  0.25835307  0.12456297  1
  P  P28  1  0.37310061  0.68909105  0.52325017  1
  P  P29  1  0.31090895  0.37310061  0.77325017  1
  P  P30  1  0.68909105  0.62689939  0.27325017  1
  P  P31  1  0.62689939  0.31090895  0.02325017  1
  O  O32  1  0.84683307  0.22521562  0.65736246  1
  O  O33  1  0.77478438  0.84683307  0.90736246  1
  O  O34  1  0.22521562  0.15316693  0.40736246  1
  O  O35  1  0.15316693  0.77478438  0.15736246  1
  O  O36  1  0.53325745  0.22366581  0.60136334  1
  O  O37  1  0.77633419  0.53325745  0.85136334  1
  O  O38  1  0.22366581  0.46674255  0.35136334  1
  O  O39  1  0.46674255  0.77633419  0.10136334  1
  O  O40  1  0.65127939  0.54707728  0.64724367  1
  O  O41  1  0.45292272  0.65127939  0.89724367  1
  O  O42  1  0.54707728  0.34872061  0.39724367  1
  O  O43  1  0.34872061  0.45292272  0.14724367  1
  O  O44  1  0.83802854  0.41054276  0.56698543  1
  O  O45  1  0.58945724  0.83802854  0.81698543  1
  O  O46  1  0.41054276  0.16197146  0.31698543  1
  O  O47  1  0.16197146  0.58945724  0.06698543  1
  O  O48  1  0.97384147  0.44568091  0.47536416  1
  O  O49  1  0.55431909  0.97384147  0.72536416  1
  O  O50  1  0.44568091  0.02615853  0.22536416  1
  O  O51  1  0.02615853  0.55431909  0.97536416  1
  O  O52  1  0.80976375  0.11952612  0.49905182  1
  O  O53  1  0.94425846  0.82044429  0.59551937  1
  O  O54  1  0.88047388  0.80976375  0.74905182  1
  O  O55  1  0.19023625  0.88047388  -0.00094818  1
  O  O56  1  0.14267011  0.20670525  0.54307335  1
  O  O57  1  0.79329475  0.14267011  0.79307335  1
  O  O58  1  0.20670525  0.85732989  0.29307335  1
  O  O59  1  0.85732989  0.79329475  0.04307335  1
  O  O60  1  0.09623010  0.58462882  0.66911581  1
  O  O61  1  0.41537118  0.09623010  0.91911581  1
  O  O62  1  0.58462882  0.90376990  0.41911581  1
  O  O63  1  0.90376990  0.41537118  0.16911581  1
  O  O64  1  0.46721595  0.16119343  0.04253426  1
  O  O65  1  0.83880657  0.46721595  0.29253426  1
  O  O66  1  0.16119343  0.53278405  0.79253426  1
  O  O67  1  0.53278405  0.83880657  0.54253426  1
  O  O68  1  0.77775695  0.20104253  0.98687069  1
  O  O69  1  0.79895747  0.77775695  0.23687069  1
  O  O70  1  0.20104253  0.22224305  0.73687069  1
  O  O71  1  0.22224305  0.79895747  0.48687069  1
  O  O72  1  0.53577188  0.49606333  -0.00001003  1
  O  O73  1  0.50393667  0.53577188  0.24998997  1
  O  O74  1  0.49606333  0.46422812  0.74998997  1
  O  O75  1  0.46422812  0.50393667  0.49998997  1
  O  O76  1  0.74473810  0.38120249  0.07898722  1
  O  O77  1  0.61879751  0.74473810  0.32898722  1
  O  O78  1  0.38120249  0.25526190  0.82898722  1
  O  O79  1  0.25526190  0.61879751  0.57898722  1
  O  O80  1  0.73981029  0.09095932  0.14742438  1
  O  O81  1  0.90904068  0.73981029  0.39742438  1
  O  O82  1  0.09095932  0.26018971  0.89742438  1
  O  O83  1  0.26018971  0.90904068  0.64742438  1
  O  O84  1  0.05574154  0.17955571  0.09551937  1
  O  O85  1  0.82044429  0.05574154  0.34551937  1
  O  O86  1  0.17955571  0.94425846  0.84551937  1
  O  O87  1  0.11952612  0.19023625  0.24905182  1
