# generated using pymatgen
data_AlPO4
_symmetry_space_group_name_H-M   'P 1'
_cell_length_a   9.70962814
_cell_length_b   9.70962774
_cell_length_c   9.70962726
_cell_angle_alpha   59.99995447
_cell_angle_beta   59.99995637
_cell_angle_gamma   59.99995512
_symmetry_Int_Tables_number   1
_chemical_formula_structural   AlPO4
_chemical_formula_sum   'Al5 P5 O20'
_cell_volume   647.28016268
_cell_formula_units_Z   5
loop_
 _symmetry_equiv_pos_site_id
 _symmetry_equiv_pos_as_xyz
  1  'x, y, z'
loop_
 _atom_site_type_symbol
 _atom_site_label
 _atom_site_symmetry_multiplicity
 _atom_site_fract_x
 _atom_site_fract_y
 _atom_site_fract_z
 _atom_site_occupancy
  Al  Al0  1  0.74999963  0.74999962  0.74999964  1
  Al  Al1  1  0.65794942  0.11401630  0.11401631  1
  Al  Al2  1  0.11401632  0.65794939  0.11401632  1
  Al  Al3  1  0.11401645  0.11401644  0.11401646  1
  Al  Al4  1  0.11401636  0.11401631  0.65794940  1
  P  P5  1  0.88529492  0.88529493  0.34411368  1
  P  P6  1  0.88529491  0.34411366  0.88529493  1
  P  P7  1  0.88529492  0.88529491  0.88529488  1
  P  P8  1  0.34411368  0.88529491  0.88529494  1
  P  P9  1  0.24999986  0.24999974  0.24999975  1
  O  O10  1  0.99177805  0.99177806  0.28194594  1
  O  O11  1  0.73449651  0.99177781  0.28194591  1
  O  O12  1  0.99177781  0.28194592  0.73449650  1
  O  O13  1  0.82209730  0.82209728  0.53370669  1
  O  O14  1  0.82209733  0.82209734  0.82209728  1
  O  O15  1  0.82209731  0.53370667  0.82209728  1
  O  O16  1  0.99177805  0.28194597  0.99177805  1
  O  O17  1  0.53370667  0.82209727  0.82209730  1
  O  O18  1  0.73449652  0.28194593  0.99177782  1
  O  O19  1  0.28194591  0.99177778  0.73449654  1
  O  O20  1  0.28194595  0.99177808  0.99177804  1
  O  O21  1  0.28194593  0.73449648  0.99177784  1
  O  O22  1  0.99177782  0.73449651  0.28194589  1
  O  O23  1  0.73449637  0.99177805  0.99177801  1
  O  O24  1  0.44115773  0.18628059  0.18628043  1
  O  O25  1  0.99177803  0.73449638  0.99177802  1
  O  O26  1  0.18628055  0.44115762  0.18628059  1
  O  O27  1  0.18628040  0.18628042  0.18628063  1
  O  O28  1  0.18628125  0.18628057  0.44115764  1
  O  O29  1  0.99177804  0.99177806  0.73449630  1
