# generated using pymatgen
data_ThP2O7
_symmetry_space_group_name_H-M   'P 1'
_cell_length_a   8.96738856
_cell_length_b   8.96738856
_cell_length_c   8.96738856
_cell_angle_alpha   90.00000000
_cell_angle_beta   90.00000000
_cell_angle_gamma   90.00000000
_symmetry_Int_Tables_number   1
_chemical_formula_structural   ThP2O7
_chemical_formula_sum   'Th4 P8 O28'
_cell_volume   721.10410006
_cell_formula_units_Z   4
loop_
 _symmetry_equiv_pos_site_id
 _symmetry_equiv_pos_as_xyz
  1  'x, y, z'
loop_
 _atom_site_type_symbol
 _atom_site_label
 _atom_site_symmetry_multiplicity
 _atom_site_fract_x
 _atom_site_fract_y
 _atom_site_fract_z
 _atom_site_occupancy
  Th  Th0  1  0.00000000  0.50000000  0.50000000  1
  Th  Th1  1  0.50000000  0.50000000  -0.00000000  1
  Th  Th2  1  0.50000000  0.00000000  0.50000000  1
  Th  Th3  1  0.00000000  0.00000000  -0.00000000  1
  P  P4  1  0.39894959  0.10105041  0.89894959  1
  P  P5  1  0.10105041  0.89894959  0.39894959  1
  P  P6  1  0.89894959  0.39894959  0.10105041  1
  P  P7  1  0.60105041  0.60105041  0.60105041  1
  P  P8  1  0.60105041  0.89894959  0.10105041  1
  P  P9  1  0.89894959  0.10105041  0.60105041  1
  P  P10  1  0.10105041  0.60105041  0.89894959  1
  P  P11  1  0.39894959  0.39894959  0.39894959  1
  O  O12  1  0.76058913  0.57054706  0.55576376  1
  O  O13  1  0.26058913  0.92945294  0.44423624  1
  O  O14  1  0.23941087  0.07054706  0.94423624  1
  O  O15  1  0.92945294  0.44423624  0.26058913  1
  O  O16  1  0.94423624  0.23941087  0.07054706  1
  O  O17  1  0.44423624  0.26058913  0.92945294  1
  O  O18  1  0.57054706  0.55576376  0.76058913  1
  O  O19  1  0.55576376  0.76058913  0.57054706  1
  O  O20  1  0.07054706  0.94423624  0.23941087  1
  O  O21  1  0.42945294  0.05576376  0.73941087  1
  O  O22  1  0.05576376  0.73941087  0.42945294  1
  O  O23  1  0.73941087  0.42945294  0.05576376  1
  O  O24  1  0.50000000  0.50000000  0.50000000  1
  O  O25  1  0.00000000  0.50000000  -0.00000000  1
  O  O26  1  0.00000000  0.00000000  0.50000000  1
  O  O27  1  0.50000000  0.00000000  -0.00000000  1
  O  O28  1  0.26058913  0.57054706  0.94423624  1
  O  O29  1  0.94423624  0.26058913  0.57054706  1
  O  O30  1  0.57054706  0.94423624  0.26058913  1
  O  O31  1  0.92945294  0.05576376  0.76058913  1
  O  O32  1  0.44423624  0.23941087  0.42945294  1
  O  O33  1  0.42945294  0.44423624  0.23941087  1
  O  O34  1  0.55576376  0.73941087  0.07054706  1
  O  O35  1  0.05576376  0.76058913  0.92945294  1
  O  O36  1  0.07054706  0.55576376  0.73941087  1
  O  O37  1  0.76058913  0.92945294  0.05576376  1
  O  O38  1  0.73941087  0.07054706  0.55576376  1
  O  O39  1  0.23941087  0.42945294  0.44423624  1
