# generated using pymatgen
data_SiO2
_symmetry_space_group_name_H-M   'P 1'
_cell_length_a   10.16914280
_cell_length_b   10.16914280
_cell_length_c   10.16914280
_cell_angle_alpha   127.97781363
_cell_angle_beta   127.97781363
_cell_angle_gamma   76.66097188
_symmetry_Int_Tables_number   1
_chemical_formula_structural   SiO2
_chemical_formula_sum   'Si16 O32'
_cell_volume   634.60719159
_cell_formula_units_Z   16
loop_
 _symmetry_equiv_pos_site_id
 _symmetry_equiv_pos_as_xyz
  1  'x, y, z'
loop_
 _atom_site_type_symbol
 _atom_site_label
 _atom_site_symmetry_multiplicity
 _atom_site_fract_x
 _atom_site_fract_y
 _atom_site_fract_z
 _atom_site_occupancy
  Si  Si0  1  0.50207958  0.83127236  0.77099765  1
  Si  Si1  1  0.16872764  0.93972529  0.67080622  1
  Si  Si2  1  0.24792042  0.41872764  0.72900235  1
  Si  Si3  1  0.66872764  0.99792042  0.22900235  1
  Si  Si4  1  0.74792042  0.01891907  0.82919378  1
  Si  Si5  1  0.06027471  0.73108093  0.22900235  1
  Si  Si6  1  0.48108093  0.75207958  0.17080622  1
  Si  Si7  1  0.18972529  0.91872764  0.17080622  1
  Si  Si8  1  0.26891907  0.49792042  0.32919378  1
  Si  Si9  1  0.08127236  0.25207958  0.27099765  1
  Si  Si10  1  0.68972529  0.51891907  0.27099765  1
  Si  Si11  1  0.76891907  0.43972529  0.77099765  1
  Si  Si12  1  0.56027471  0.33127236  0.32919378  1
  Si  Si13  1  0.58127236  0.31027471  0.82919378  1
  Si  Si14  1  0.98108093  0.81027471  0.72900235  1
  Si  Si15  1  0.00207958  0.23108093  0.67080622  1
  O  O16  1  0.69261941  0.45382779  0.58681032  1
  O  O17  1  0.38298152  0.29617221  0.73879161  1
  O  O18  1  0.62570335  0.12570335  0.75140771  1
  O  O19  1  0.62429665  0.87570335  0.00000000  1
  O  O20  1  0.54617221  0.13298152  0.23879161  1
  O  O21  1  0.86701848  0.10580909  0.41318968  1
  O  O22  1  0.05738059  0.79617221  0.91318968  1
  O  O23  1  0.37570335  0.37570335  0.25140771  1
  O  O24  1  0.37429665  0.87429665  0.24859229  1
  O  O25  1  0.62500000  0.36355562  0.23855562  1
  O  O26  1  0.12570335  0.37429665  0.50000000  1
  O  O27  1  0.36701848  0.95382779  0.76120839  1
  O  O28  1  0.11355562  0.37500000  0.23855562  1
  O  O29  1  0.04617221  0.80738059  0.41318968  1
  O  O30  1  0.35580909  0.61701848  0.91318968  1
  O  O31  1  0.13644438  0.87500000  0.76144438  1
  O  O32  1  0.63644438  0.87500000  0.26144438  1
  O  O33  1  0.61355562  0.37500000  0.73855562  1
  O  O34  1  0.19261941  0.60580909  0.23879161  1
  O  O35  1  0.85580909  0.94261941  0.73879161  1
  O  O36  1  0.70382779  0.44261941  0.08681032  1
  O  O37  1  0.39419091  0.63298152  0.58681032  1
  O  O38  1  0.87570335  0.62429665  -0.00000000  1
  O  O39  1  0.55738059  0.64419091  0.26120839  1
  O  O40  1  0.88298152  0.14419091  0.08681032  1
  O  O41  1  0.87429665  0.62570335  0.50000000  1
  O  O42  1  0.20382779  0.11701848  0.26120839  1
  O  O43  1  0.89419091  0.30738059  0.76120839  1
  O  O44  1  0.12500000  0.88644438  0.26144438  1
  O  O45  1  0.12500000  0.38644438  0.76144438  1
  O  O46  1  0.62500000  0.86355562  0.73855562  1
  O  O47  1  0.12429665  0.12429665  0.74859229  1
