# generated using pymatgen
data_AlPO4
_symmetry_space_group_name_H-M   'P 1'
_cell_length_a   9.37928279
_cell_length_b   9.37928279
_cell_length_c   9.37928257
_cell_angle_alpha   94.59757908
_cell_angle_beta   94.59757906
_cell_angle_gamma   94.59757661
_symmetry_Int_Tables_number   1
_chemical_formula_structural   AlPO4
_chemical_formula_sum   'Al6 P6 O24'
_cell_volume   816.68437111
_cell_formula_units_Z   6
loop_
 _symmetry_equiv_pos_site_id
 _symmetry_equiv_pos_as_xyz
  1  'x, y, z'
loop_
 _atom_site_type_symbol
 _atom_site_label
 _atom_site_symmetry_multiplicity
 _atom_site_fract_x
 _atom_site_fract_y
 _atom_site_fract_z
 _atom_site_occupancy
  Al  Al0  1  0.12323138  0.66680570  0.89939735  1
  Al  Al1  1  0.89939735  0.12323138  0.66680570  1
  Al  Al2  1  0.87676862  0.33319430  0.10060265  1
  Al  Al3  1  0.66680570  0.89939735  0.12323138  1
  Al  Al4  1  0.33319430  0.10060265  0.87676862  1
  Al  Al5  1  0.10060265  0.87676862  0.33319430  1
  P  P6  1  0.87859814  0.11118821  0.33361181  1
  P  P7  1  0.88881179  0.66638819  0.12140186  1
  P  P8  1  0.33361181  0.87859814  0.11118821  1
  P  P9  1  0.66638819  0.12140186  0.88881179  1
  P  P10  1  0.11118821  0.33361181  0.87859814  1
  P  P11  1  0.12140186  0.88881179  0.66638819  1
  O  O12  1  0.48951855  0.85680439  0.15276899  1
  O  O13  1  0.15276899  0.48951855  0.85680439  1
  O  O14  1  0.98682546  0.73334399  0.25098256  1
  O  O15  1  0.89371563  0.24676017  0.25618772  1
  O  O16  1  0.32332909  0.01507920  0.03396204  1
  O  O17  1  0.10628437  0.75323983  0.74381228  1
  O  O18  1  0.26665601  0.74901744  0.01317454  1
  O  O19  1  0.25098256  0.98682546  0.73334399  1
  O  O20  1  0.03396204  0.32332909  0.01507920  1
  O  O21  1  0.01507920  0.03396204  0.32332909  1
  O  O22  1  0.84723101  0.51048145  0.14319561  1
  O  O23  1  0.98492080  0.96603796  0.67667091  1
  O  O24  1  0.74381228  0.10628437  0.75323983  1
  O  O25  1  0.14319561  0.84723101  0.51048145  1
  O  O26  1  0.01317454  0.26665601  0.74901744  1
  O  O27  1  0.25618772  0.89371563  0.24676017  1
  O  O28  1  0.74901744  0.01317454  0.26665601  1
  O  O29  1  0.24676017  0.25618772  0.89371563  1
  O  O30  1  0.96603796  0.67667091  0.98492080  1
  O  O31  1  0.67667091  0.98492080  0.96603796  1
  O  O32  1  0.73334399  0.25098256  0.98682546  1
  O  O33  1  0.85680439  0.15276899  0.48951855  1
  O  O34  1  0.51048145  0.14319561  0.84723101  1
  O  O35  1  0.75323983  0.74381228  0.10628437  1
