# generated using pymatgen
data_Sr(PO3)2
_symmetry_space_group_name_H-M   'P 1'
_cell_length_a   10.93089965
_cell_length_b   4.49492692
_cell_length_c   10.38854392
_cell_angle_alpha   88.38733210
_cell_angle_beta   90.00000000
_cell_angle_gamma   90.00000000
_symmetry_Int_Tables_number   1
_chemical_formula_structural   Sr(PO3)2
_chemical_formula_sum   'Sr4 P8 O24'
_cell_volume   510.22433973
_cell_formula_units_Z   4
loop_
 _symmetry_equiv_pos_site_id
 _symmetry_equiv_pos_as_xyz
  1  'x, y, z'
loop_
 _atom_site_type_symbol
 _atom_site_label
 _atom_site_symmetry_multiplicity
 _atom_site_fract_x
 _atom_site_fract_y
 _atom_site_fract_z
 _atom_site_occupancy
  Sr  Sr0  1  0.80811185  0.03073566  0.98582138  1
  Sr  Sr1  1  0.19188815  0.96926434  0.01417862  1
  Sr  Sr2  1  0.69188815  0.03073566  0.48582138  1
  Sr  Sr3  1  0.30811185  0.96926434  0.51417862  1
  P  P4  1  0.34906413  0.43566431  0.79357370  1
  P  P5  1  0.65093587  0.56433569  0.20642630  1
  P  P6  1  0.98672092  0.93021362  0.28365634  1
  P  P7  1  0.01327908  0.06978638  0.71634366  1
  P  P8  1  0.84906413  0.56433569  0.70642630  1
  P  P9  1  0.48672092  0.06978638  0.21634366  1
  P  P10  1  0.51327908  0.93021362  0.78365634  1
  P  P11  1  0.15093587  0.43566431  0.29357370  1
  O  O12  1  0.89054214  0.89808624  0.66906627  1
  O  O13  1  0.48529861  0.04148347  0.35992732  1
  O  O14  1  0.51470139  0.95851653  0.64007268  1
  O  O15  1  0.25009701  0.50158056  0.38642385  1
  O  O16  1  0.01470139  0.04148347  0.85992732  1
  O  O17  1  0.37841533  0.98194303  0.14320498  1
  O  O18  1  0.75009701  0.49841944  0.11357615  1
  O  O19  1  0.02739040  0.60579373  0.33076969  1
  O  O20  1  0.10945786  0.10191376  0.33093373  1
  O  O21  1  0.74990299  0.49841944  0.61357615  1
  O  O22  1  0.32763354  0.46937559  0.65269558  1
  O  O23  1  0.98529861  0.95851653  0.14007268  1
  O  O24  1  0.82763354  0.53062441  0.84730442  1
  O  O25  1  0.62158467  0.01805697  0.85679502  1
  O  O26  1  0.60945786  0.89808624  0.16906627  1
  O  O27  1  0.47260960  0.60579373  0.83076969  1
  O  O28  1  0.87841533  0.01805697  0.35679502  1
  O  O29  1  0.67236646  0.53062441  0.34730442  1
  O  O30  1  0.39054214  0.10191376  0.83093373  1
  O  O31  1  0.97260960  0.39420627  0.66923031  1
  O  O32  1  0.24990299  0.50158056  0.88642385  1
  O  O33  1  0.52739040  0.39420627  0.16923031  1
  O  O34  1  0.12158467  0.98194303  0.64320498  1
  O  O35  1  0.17236646  0.46937559  0.15269558  1
