# generated using pymatgen
data_SiO2
_symmetry_space_group_name_H-M   'P 1'
_cell_length_a   8.37370053
_cell_length_b   13.21356456
_cell_length_c   13.21356423
_cell_angle_alpha   66.65160702
_cell_angle_beta   71.52686577
_cell_angle_gamma   71.52686355
_symmetry_Int_Tables_number   1
_chemical_formula_structural   SiO2
_chemical_formula_sum   'Si24 O48'
_cell_volume   1242.04957130
_cell_formula_units_Z   24
loop_
 _symmetry_equiv_pos_site_id
 _symmetry_equiv_pos_as_xyz
  1  'x, y, z'
loop_
 _atom_site_type_symbol
 _atom_site_label
 _atom_site_symmetry_multiplicity
 _atom_site_fract_x
 _atom_site_fract_y
 _atom_site_fract_z
 _atom_site_occupancy
  Si  Si0  1  0.75241767  0.62424381  0.49543257  1
  Si  Si1  1  0.51184969  0.23240701  0.12185412  1
  Si  Si2  1  0.30334556  0.76379954  0.26379954  1
  Si  Si3  1  0.68496414  0.37829521  0.87829521  1
  Si  Si4  1  0.24758233  0.00456743  0.87575619  1
  Si  Si5  1  0.12790595  0.62424381  0.49543257  1
  Si  Si6  1  0.33094465  0.23620046  0.73620046  1
  Si  Si7  1  0.94155555  0.62170479  0.12170479  1
  Si  Si8  1  0.51184969  0.62185412  0.73240701  1
  Si  Si9  1  0.13388817  0.62185412  0.73240701  1
  Si  Si10  1  0.66905535  0.76379954  0.26379954  1
  Si  Si11  1  0.24758233  0.37575619  0.50456743  1
  Si  Si12  1  0.86611183  0.76759299  0.87814588  1
  Si  Si13  1  0.31503586  0.62170479  0.12170479  1
  Si  Si14  1  0.87209405  0.37575619  0.50456743  1
  Si  Si15  1  0.13388817  0.23240701  0.12185412  1
  Si  Si16  1  0.48815031  0.37814588  0.26759299  1
  Si  Si17  1  0.05844445  0.37829521  0.87829521  1
  Si  Si18  1  0.12790595  0.99543257  0.12424381  1
  Si  Si19  1  0.75241767  0.99543257  0.12424381  1
  Si  Si20  1  0.69665444  0.23620046  0.73620046  1
  Si  Si21  1  0.48815031  0.76759299  0.87814588  1
  Si  Si22  1  0.86611183  0.37814588  0.26759299  1
  Si  Si23  1  0.87209405  0.00456743  0.87575619  1
  O  O24  1  0.77329910  0.28209300  0.60213192  1
  O  O25  1  0.22670090  0.71790700  0.39786808  1
  O  O26  1  0.50000000  0.28426387  0.21573613  1
  O  O27  1  0.09140495  0.64203901  0.61457836  1
  O  O28  1  0.51113412  0.73886588  0.23886588  1
  O  O29  1  0.14750983  0.60249017  0.10249017  1
  O  O30  1  0.88600810  0.50229931  0.18114423  1
  O  O31  1  0.34247599  0.10213192  0.78209300  1
  O  O32  1  0.67189457  0.36624409  0.28996578  1
  O  O33  1  0.34802132  0.35796099  0.38542164  1
  O  O34  1  0.11399190  0.49770069  0.81885577  1
  O  O35  1  0.67189457  0.78996578  0.86624409  1
  O  O36  1  0.94786233  0.63759531  0.46667802  1
  O  O37  1  0.34247599  0.28209300  0.60213192  1
  O  O38  1  0.34802132  0.88542164  0.85796099  1
  O  O39  1  0.94786233  0.96667802  0.13759531  1
  O  O40  1  0.77329910  0.10213192  0.78209300  1
  O  O41  1  0.50000000  0.71573613  0.78426387  1
  O  O42  1  -0.00000000  0.28426387  0.21573613  1
  O  O43  1  0.90859505  0.88542164  0.85796099  1
  O  O44  1  0.56945164  0.49770069  0.81885577  1
  O  O45  1  0.65752401  0.71790700  0.39786808  1
  O  O46  1  0.74924444  0.29942874  0.79942874  1
  O  O47  1  0.24678835  0.50000000  0.50000000  1
  O  O48  1  0.65752401  0.89786808  0.21790700  1
  O  O49  1  0.05213767  0.36240469  0.53332198  1
  O  O50  1  0.85249017  0.39750983  0.89750983  1
  O  O51  1  0.75321165  0.00000000  0.00000000  1
  O  O52  1  0.24678835  -0.00000000  -0.00000000  1
  O  O53  1  0.25075556  0.70057126  0.20057126  1
  O  O54  1  0.15190008  0.29942874  0.79942874  1
  O  O55  1  0.22670090  0.89786808  0.21790700  1
  O  O56  1  0.65197868  0.64203901  0.61457836  1
  O  O57  1  0.88600810  0.68114423  0.00229931  1
  O  O58  1  0.75321165  0.50000000  0.50000000  1
  O  O59  1  0.32810543  0.63375591  0.71003422  1
  O  O60  1  0.32810543  0.21003422  0.13375591  1
  O  O61  1  0.05213767  0.03332198  0.86240469  1
  O  O62  1  0.48886588  0.26113412  0.76113412  1
  O  O63  1  0.90859505  0.35796099  0.38542164  1
  O  O64  1  0.11399190  0.31885577  0.99770069  1
  O  O65  1  0.65197868  0.11457836  0.14203901  1
  O  O66  1  0.09140495  0.11457836  0.14203901  1
  O  O67  1  0.00000000  0.71573613  0.78426387  1
  O  O68  1  0.84809992  0.70057126  0.20057126  1
  O  O69  1  0.43054836  0.68114423  0.00229931  1
  O  O70  1  0.43054836  0.50229931  0.18114423  1
  O  O71  1  0.56945164  0.31885577  0.99770069  1
