# generated using pymatgen
data_H7ClO7
_symmetry_space_group_name_H-M   'P 1'
_cell_length_a   8.15810866
_cell_length_b   10.04749520
_cell_length_c   13.03670293
_cell_angle_alpha   89.99990416
_cell_angle_beta   89.99892339
_cell_angle_gamma   90.00041000
_symmetry_Int_Tables_number   1
_chemical_formula_structural   H7ClO7
_chemical_formula_sum   'H56 Cl8 O56'
_cell_volume   1068.59973496
_cell_formula_units_Z   8
loop_
 _symmetry_equiv_pos_site_id
 _symmetry_equiv_pos_as_xyz
  1  'x, y, z'
loop_
 _atom_site_type_symbol
 _atom_site_label
 _atom_site_symmetry_multiplicity
 _atom_site_fract_x
 _atom_site_fract_y
 _atom_site_fract_z
 _atom_site_occupancy
  H  H0  1  0.89503895  0.17547246  0.57495494  1
  H  H1  1  0.57022725  0.55929241  0.75963727  1
  H  H2  1  0.57022903  0.05930732  0.74035691  1
  H  H3  1  0.69342825  0.55746726  0.60663799  1
  H  H4  1  0.44915106  0.61160284  0.35677002  1
  H  H5  1  0.48425861  0.22513426  0.65961951  1
  H  H6  1  0.07022567  0.94071543  0.75963745  1
  H  H7  1  0.92977573  0.05927953  0.24035748  1
  H  H8  1  0.44914483  0.11160278  0.14323870  1
  H  H9  1  0.95687105  0.03288324  0.12182356  1
  H  H10  1  0.54312702  0.53290966  0.87817290  1
  H  H11  1  0.79134529  0.46054223  0.67873458  1
  H  H12  1  0.69342317  0.05745725  0.89336114  1
  H  H13  1  0.10493588  0.32451524  0.07493261  1
  H  H14  1  0.04312379  0.96709632  0.87817421  1
  H  H15  1  0.10494073  0.82451466  0.42506388  1
  H  H16  1  0.29133973  0.03947221  0.67873828  1
  H  H17  1  0.55085361  0.88839261  0.85674615  1
  H  H18  1  0.20867540  0.53946359  0.32127108  1
  H  H19  1  0.95686689  0.53288958  0.37818370  1
  H  H20  1  0.92978060  0.55928209  0.25964886  1
  H  H21  1  0.48426165  0.72512424  0.84037857  1
  H  H22  1  0.01573263  0.22510858  0.15960229  1
  H  H23  1  0.30658289  0.94254348  0.10663632  1
  H  H24  1  0.07023122  0.44070459  0.74035546  1
  H  H25  1  0.45686780  0.46710590  0.12182367  1
  H  H26  1  0.80658807  0.55744924  0.10664433  1
  H  H27  1  0.51573033  0.77488086  0.34039565  1
  H  H28  1  0.60494316  0.67548566  0.42506525  1
  H  H29  1  0.04313789  0.46709012  0.62182090  1
  H  H30  1  0.19342165  0.44255028  0.89335706  1
  H  H31  1  0.01573296  0.72510902  0.34039877  1
  H  H32  1  0.42977828  0.44070618  0.24035899  1
  H  H33  1  0.98425478  0.27487850  0.65961399  1
  H  H34  1  0.94914719  0.38838333  0.14324167  1
  H  H35  1  0.80657886  0.05745260  0.39336329  1
  H  H36  1  0.19342258  0.94254718  0.60664092  1
  H  H37  1  0.51573184  0.27488133  0.15960300  1
  H  H38  1  0.70866724  0.96052370  0.32126650  1
  H  H39  1  0.20866288  0.03946279  0.17873645  1
  H  H40  1  0.70866861  0.46052503  0.17874121  1
  H  H41  1  0.39504617  0.32453515  0.57495683  1
  H  H42  1  0.79134164  0.96054106  0.82125502  1
  H  H43  1  0.30658619  0.44253546  0.39336846  1
  H  H44  1  0.94914666  0.88838443  0.35676423  1
  H  H45  1  0.05084569  0.11161018  0.64324836  1
  H  H46  1  0.98425981  0.77488277  0.84037879  1
  H  H47  1  0.39505892  0.82452757  0.92504782  1
  H  H48  1  0.05085597  0.61161798  0.85674304  1
  H  H49  1  0.29134576  0.53946721  0.82125405  1
  H  H50  1  0.89505920  0.67547222  0.92504475  1
  H  H51  1  0.54313756  0.03292346  0.62182236  1
  H  H52  1  0.42977502  0.94070286  0.25964165  1
  H  H53  1  0.55085322  0.38840545  0.64324644  1
  H  H54  1  0.60493282  0.17548028  0.07493079  1
  H  H55  1  0.45685860  0.96710033  0.37817597  1
  Cl  Cl56  1  0.74265600  0.82146689  0.57880420  1
  Cl  Cl57  1  0.75734842  0.82145525  0.07879488  1
  Cl  Cl58  1  0.24264720  0.17853852  0.92120038  1
  Cl  Cl59  1  0.25734925  0.67853590  0.07879591  1
  Cl  Cl60  1  0.74264542  0.32146511  0.92119866  1
  Cl  Cl61  1  0.25734309  0.17854164  0.42120482  1
  Cl  Cl62  1  0.75734515  0.32145294  0.42120606  1
  Cl  Cl63  1  0.24265359  0.67854285  0.57880033  1
  O  O64  1  -0.00174221  0.08385090  0.18045727  1
  O  O65  1  0.49825540  0.91613940  0.31954454  1
  O  O66  1  0.24652319  0.30443817  0.97917796  1
  O  O67  1  0.74653477  0.69556945  0.52082244  1
  O  O68  1  0.70408811  0.79344026  0.68368976  1
  O  O69  1  0.88263150  0.40525718  0.46645250  1
  O  O70  1  0.95346177  0.67679351  0.85856402  1
  O  O71  1  0.20409254  0.20656447  0.81631307  1
  O  O72  1  0.24653491  0.80444305  0.52081641  1
  O  O73  1  0.10059487  0.61514872  0.07022782  1
  O  O74  1  0.11738908  0.59472870  0.53355061  1
  O  O75  1  0.18016470  0.00867547  0.66108464  1
  O  O76  1  0.04653465  0.32319431  0.14141711  1
  O  O77  1  0.89942338  0.88483534  0.57024971  1
  O  O78  1  0.39940956  0.11516314  0.92975621  1
  O  O79  1  0.81983991  0.49132220  0.16109075  1
  O  O80  1  0.31984896  0.50866403  0.33891986  1
  O  O81  1  0.50174097  0.58386462  0.81953785  1
  O  O82  1  0.25345974  0.30443635  0.47918279  1
  O  O83  1  0.89940920  0.38484627  0.92975242  1
  O  O84  1  0.68016858  0.49133838  0.66108527  1
  O  O85  1  0.10058420  0.11515733  0.42976653  1
  O  O86  1  0.88264643  0.90525861  0.03354869  1
  O  O87  1  0.25347108  0.80443613  0.02082059  1
  O  O88  1  0.79590367  0.29342906  0.31631816  1
  O  O89  1  0.70408815  0.29344012  0.81631241  1
  O  O90  1  0.54654081  0.67679412  0.35858847  1
  O  O91  1  0.31983782  0.00866422  0.16108578  1
  O  O92  1  0.61736220  0.40527247  0.96645039  1
  O  O93  1  0.11736372  0.09472910  0.96645007  1
  O  O94  1  0.60058510  0.38483336  0.42976316  1
  O  O95  1  0.00173947  0.41614012  0.68045609  1
  O  O96  1  0.81984064  0.99132142  0.33891717  1
  O  O97  1  0.45345703  0.32322372  0.64143043  1
  O  O98  1  0.68016955  0.99132913  0.83890854  1
  O  O99  1  0.38262893  0.09473711  0.46644905  1
  O  O100  1  0.29588483  0.70655946  0.18368729  1
  O  O101  1  -0.00173567  0.58384916  0.31955034  1
  O  O102  1  0.95345514  0.17678948  0.64143010  1
  O  O103  1  0.00174225  0.91613810  0.81953806  1
  O  O104  1  0.29589079  0.20656528  0.31631682  1
  O  O105  1  0.74652735  0.19556760  0.97917810  1
  O  O106  1  0.75347662  0.69555687  0.02082096  1
  O  O107  1  0.39942350  0.61517819  0.57025473  1
  O  O108  1  0.38264450  0.59473622  0.03355238  1
  O  O109  1  0.20408151  0.70657369  0.68368598  1
  O  O110  1  0.49826210  0.41614114  0.18046006  1
  O  O111  1  0.79588506  0.79343412  0.18368622  1
  O  O112  1  0.18017045  0.50867846  0.83890550  1
  O  O113  1  0.04653823  0.82319713  0.35858677  1
  O  O114  1  0.45345824  0.82321424  0.85856589  1
  O  O115  1  0.50174185  0.08387409  0.68045644  1
  O  O116  1  0.61738825  0.90528354  0.53355337  1
  O  O117  1  0.60059232  0.88483863  0.07022562  1
  O  O118  1  0.75346227  0.19555724  0.47918429  1
  O  O119  1  0.54653067  0.17679529  0.14141423  1
