# generated using pymatgen
data_H2O
_symmetry_space_group_name_H-M   'P 1'
_cell_length_a   3.91299022
_cell_length_b   7.97997821
_cell_length_c   8.03952124
_cell_angle_alpha   89.99857753
_cell_angle_beta   89.98912530
_cell_angle_gamma   89.98882441
_symmetry_Int_Tables_number   1
_chemical_formula_structural   H2O
_chemical_formula_sum   'H24 O12'
_cell_volume   251.03867797
_cell_formula_units_Z   12
loop_
 _symmetry_equiv_pos_site_id
 _symmetry_equiv_pos_as_xyz
  1  'x, y, z'
loop_
 _atom_site_type_symbol
 _atom_site_label
 _atom_site_symmetry_multiplicity
 _atom_site_fract_x
 _atom_site_fract_y
 _atom_site_fract_z
 _atom_site_occupancy
  H  H0  1  0.48753150  0.92295888  0.64810132  1
  H  H1  1  0.85614584  0.09053600  0.94732228  1
  H  H2  1  0.01073918  0.15475236  0.57120982  1
  H  H3  1  0.68838711  0.28142968  0.22515386  1
  H  H4  1  0.06153967  0.71878898  0.72510974  1
  H  H5  1  0.23931012  0.65473411  0.42887099  1
  H  H6  1  0.39440389  0.59061785  0.05276151  1
  H  H7  1  0.76223030  0.42297074  0.35189775  1
  H  H8  1  0.18828591  0.21899792  0.27477090  1
  H  H9  1  0.14428493  0.95853622  0.89903910  1
  H  H10  1  0.45238865  0.22264286  0.78170955  1
  H  H11  1  0.60550580  0.04160516  0.39889644  1
  H  H12  1  0.79797345  0.72268844  0.21841347  1
  H  H13  1  0.29790231  0.77701234  0.28160331  1
  H  H14  1  0.89356022  0.90946945  0.44701323  1
  H  H15  1  0.10614468  0.45870675  0.10102430  1
  H  H16  1  0.64423336  0.54130306  0.60117512  1
  H  H17  1  0.35617671  0.40923552  0.55300993  1
  H  H18  1  0.26227364  0.07718814  0.14828072  1
  H  H19  1  0.98791725  0.57713688  0.85178377  1
  H  H20  1  0.95232786  0.27696863  0.71852703  1
  H  H21  1  0.73956901  0.84508564  0.07123615  1
  H  H22  1  0.56153438  0.78125673  0.77470887  1
  H  H23  1  0.51078686  0.34512989  0.92881531  1
  O  O24  1  -0.00006196  0.99890788  0.99148643  1
  O  O25  1  0.49982022  0.50089540  0.50881240  1
  O  O26  1  0.74991852  0.00111476  0.49125148  1
  O  O27  1  0.62417715  0.75580908  0.13589839  1
  O  O28  1  0.36525788  0.13614259  0.24417956  1
  O  O29  1  0.12400373  0.74397266  0.36411833  1
  O  O30  1  0.86524697  0.36425376  0.25582503  1
  O  O31  1  0.62618080  0.25580094  0.86419433  1
  O  O32  1  0.38459827  0.86410362  0.74409556  1
  O  O33  1  0.25057413  0.49902297  0.00860147  1
  O  O34  1  0.12618632  0.24389517  0.63598889  1
  O  O35  1  0.88475036  0.63592494  0.75581469  1
