# generated using pymatgen
data_NaCaBeSi2O6F
_symmetry_space_group_name_H-M   'P 1'
_cell_length_a   7.38210300
_cell_length_b   7.40587191
_cell_length_c   9.93598566
_cell_angle_alpha   90.00000000
_cell_angle_beta   90.00000000
_cell_angle_gamma   90.00000000
_symmetry_Int_Tables_number   1
_chemical_formula_structural   NaCaBeSi2O6F
_chemical_formula_sum   'Na4 Ca4 Be4 Si8 O24 F4'
_cell_volume   543.20937027
_cell_formula_units_Z   4
loop_
 _symmetry_equiv_pos_site_id
 _symmetry_equiv_pos_as_xyz
  1  'x, y, z'
loop_
 _atom_site_type_symbol
 _atom_site_label
 _atom_site_symmetry_multiplicity
 _atom_site_fract_x
 _atom_site_fract_y
 _atom_site_fract_z
 _atom_site_occupancy
  Na  Na0  1  0.10478288  0.18182191  0.25444938  1
  Na  Na1  1  0.39521712  0.81817809  0.75444938  1
  Na  Na2  1  0.60478288  0.31817809  0.74555062  1
  Na  Na3  1  0.89521712  0.68182191  0.24555062  1
  Ca  Ca4  1  0.07896805  0.14564080  0.73911369  1
  Ca  Ca5  1  0.42103195  0.85435920  0.23911369  1
  Ca  Ca6  1  0.57896805  0.35435920  0.26088631  1
  Ca  Ca7  1  0.92103195  0.64564080  0.76088631  1
  Be  Be8  1  0.11939320  0.85867833  0.96609961  1
  Be  Be9  1  0.88060680  0.35867833  0.53390039  1
  Be  Be10  1  0.61939320  0.64132167  0.03390039  1
  Be  Be11  1  0.38060680  0.14132167  0.46609961  1
  Si  Si12  1  0.40102839  0.14219168  0.97562374  1
  Si  Si13  1  0.76452631  0.99092945  0.99983556  1
  Si  Si14  1  0.09897161  0.85780832  0.47562374  1
  Si  Si15  1  0.73547369  0.00907055  0.49983556  1
  Si  Si16  1  0.59897161  0.64219168  0.52437626  1
  Si  Si17  1  0.90102839  0.35780832  0.02437626  1
  Si  Si18  1  0.23547369  0.49092945  0.50016444  1
  Si  Si19  1  0.26452631  0.50907055  0.00016444  1
  O  O20  1  0.35326696  0.34280950  0.90921083  1
  O  O21  1  0.92083621  0.91228892  0.90260536  1
  O  O22  1  0.60053461  0.08624053  0.91073179  1
  O  O23  1  0.42083621  0.58771108  0.09739464  1
  O  O24  1  0.85326696  0.15719050  0.09078917  1
  O  O25  1  0.82265813  0.16208745  0.59485168  1
  O  O26  1  0.89946539  0.91375947  0.41073179  1
  O  O27  1  0.67734187  0.83791255  0.09485168  1
  O  O28  1  0.39946539  0.58624053  0.58926821  1
  O  O29  1  0.64673304  0.84280950  0.59078917  1
  O  O30  1  0.17734187  0.66208745  0.90514832  1
  O  O31  1  0.75573011  0.49250946  0.09010262  1
  O  O32  1  0.14673304  0.65719050  0.40921083  1
  O  O33  1  0.74426989  0.50749054  0.59010262  1
  O  O34  1  0.40825835  0.14572299  0.13575148  1
  O  O35  1  0.59174165  0.64572299  0.36424852  1
  O  O36  1  0.25573011  0.00749054  0.90989738  1
  O  O37  1  0.90825835  0.35427701  0.86424852  1
  O  O38  1  0.32265813  0.33791255  0.40514832  1
  O  O39  1  0.24426989  0.99250946  0.40989738  1
  O  O40  1  0.57916379  0.08771108  0.40260536  1
  O  O41  1  0.10053461  0.41375947  0.08926821  1
  O  O42  1  0.09174165  0.85427701  0.63575148  1
  O  O43  1  0.07916379  0.41228892  0.59739464  1
  F  F44  1  0.87894854  0.35175608  0.37362118  1
  F  F45  1  0.37894854  0.14824392  0.62637882  1
  F  F46  1  0.62105146  0.64824392  0.87362118  1
  F  F47  1  0.12105146  0.85175608  0.12637882  1
