# generated using pymatgen
data_NaLuP2O7
_symmetry_space_group_name_H-M   'P 1'
_cell_length_a   5.33710537
_cell_length_b   8.95505819
_cell_length_c   13.72506141
_cell_angle_alpha   63.91395538
_cell_angle_beta   90.00000000
_cell_angle_gamma   90.00000000
_symmetry_Int_Tables_number   1
_chemical_formula_structural   NaLuP2O7
_chemical_formula_sum   'Na4 Lu4 P8 O28'
_cell_volume   589.15553648
_cell_formula_units_Z   4
loop_
 _symmetry_equiv_pos_site_id
 _symmetry_equiv_pos_as_xyz
  1  'x, y, z'
loop_
 _atom_site_type_symbol
 _atom_site_label
 _atom_site_symmetry_multiplicity
 _atom_site_fract_x
 _atom_site_fract_y
 _atom_site_fract_z
 _atom_site_occupancy
  Na  Na0  1  0.77325912  0.55312276  0.80645201  1
  Na  Na1  1  0.22674088  0.44687724  0.19354799  1
  Na  Na2  1  0.72674088  0.55312276  0.30645201  1
  Na  Na3  1  0.27325912  0.44687724  0.69354799  1
  Lu  Lu4  1  0.26265361  0.25627208  0.47469067  1
  Lu  Lu5  1  0.76265361  0.74372792  0.02530933  1
  Lu  Lu6  1  0.73734639  0.74372792  0.52530933  1
  Lu  Lu7  1  0.23734639  0.25627208  0.97469067  1
  P  P8  1  0.24881851  0.82085122  0.15203638  1
  P  P9  1  0.72055524  0.31393749  0.11746784  1
  P  P10  1  0.75118149  0.17914878  0.84796362  1
  P  P11  1  0.27944476  0.68606251  0.88253216  1
  P  P12  1  0.22055524  0.68606251  0.38253216  1
  P  P13  1  0.74881851  0.17914878  0.34796362  1
  P  P14  1  0.25118149  0.82085122  0.65203638  1
  P  P15  1  0.77944476  0.31393749  0.61746784  1
  O  O16  1  0.46439533  0.71460741  0.14404882  1
  O  O17  1  0.11736984  0.72158737  0.95936265  1
  O  O18  1  0.77978943  0.16679778  0.23542669  1
  O  O19  1  0.24124653  0.99652041  0.56559758  1
  O  O20  1  0.05735820  0.31028921  0.59417818  1
  O  O21  1  0.70798879  0.47243421  0.62541563  1
  O  O22  1  0.99958913  0.26656581  0.84061766  1
  O  O23  1  0.29201121  0.52756579  0.37458437  1
  O  O24  1  0.00041087  0.73343419  0.15938234  1
  O  O25  1  0.75875347  0.00347959  0.43440242  1
  O  O26  1  0.27978943  0.83320222  0.26457331  1
  O  O27  1  0.61736984  0.27841263  0.54063735  1
  O  O28  1  0.72021057  0.16679778  0.73542669  1
  O  O29  1  0.55735820  0.68971079  0.90582182  1
  O  O30  1  0.22021057  0.83320222  0.76457331  1
  O  O31  1  0.94264180  0.68971079  0.40582182  1
  O  O32  1  0.38263016  0.72158737  0.45936265  1
  O  O33  1  0.53560467  0.28539259  0.85595118  1
  O  O34  1  0.50041087  0.26656581  0.34061766  1
  O  O35  1  0.44264180  0.31028921  0.09417818  1
  O  O36  1  0.20798879  0.52756579  0.87458437  1
  O  O37  1  0.96439533  0.28539259  0.35595118  1
  O  O38  1  0.74124653  0.00347959  0.93440242  1
  O  O39  1  0.25875347  0.99652041  0.06559758  1
  O  O40  1  0.88263016  0.27841263  0.04063735  1
  O  O41  1  0.03560467  0.71460741  0.64404882  1
  O  O42  1  0.49958913  0.73343419  0.65938234  1
  O  O43  1  0.79201121  0.47243421  0.12541563  1
