# generated using pymatgen
data_Sr2P2O7
_symmetry_space_group_name_H-M   'P 1'
_cell_length_a   5.39609935
_cell_length_b   8.91691203
_cell_length_c   13.17812947
_cell_angle_alpha   90.00001383
_cell_angle_beta   90.00000445
_cell_angle_gamma   89.99999488
_symmetry_Int_Tables_number   1
_chemical_formula_structural   Sr2P2O7
_chemical_formula_sum   'Sr8 P8 O28'
_cell_volume   634.08603606
_cell_formula_units_Z   4
loop_
 _symmetry_equiv_pos_site_id
 _symmetry_equiv_pos_as_xyz
  1  'x, y, z'
loop_
 _atom_site_type_symbol
 _atom_site_label
 _atom_site_symmetry_multiplicity
 _atom_site_fract_x
 _atom_site_fract_y
 _atom_site_fract_z
 _atom_site_occupancy
  Sr  Sr0  1  0.25000016  0.12496643  0.58677499  1
  Sr  Sr1  1  0.75000000  0.87503270  0.41322414  1
  Sr  Sr2  1  0.25000001  0.62496635  0.91322479  1
  Sr  Sr3  1  0.74999969  0.37503352  0.08677502  1
  Sr  Sr4  1  0.24999952  0.17207643  0.26020919  1
  Sr  Sr5  1  0.75000010  0.82792395  0.73978995  1
  Sr  Sr6  1  0.25000067  0.67207660  0.23979041  1
  Sr  Sr7  1  0.75000008  0.32792384  0.76020979  1
  P  P8  1  0.75000014  0.72348303  0.03552124  1
  P  P9  1  0.24999999  0.27651819  0.96448025  1
  P  P10  1  0.74999994  0.22348219  0.46447866  1
  P  P11  1  0.25000010  0.77651819  0.53551969  1
  P  P12  1  0.74999991  0.96743304  0.18261508  1
  P  P13  1  0.25000008  0.03256741  0.81738472  1
  P  P14  1  0.75000000  0.46743315  0.31738392  1
  P  P15  1  0.24999992  0.53256733  0.68261530  1
  O  O16  1  0.75000014  0.13445308  0.16659679  1
  O  O17  1  0.25000004  0.86554749  0.83340291  1
  O  O18  1  0.74999989  0.63445397  0.33340351  1
  O  O19  1  0.25000007  0.36554745  0.66659714  1
  O  O20  1  0.74999997  0.72570553  0.92084602  1
  O  O21  1  0.25000003  0.27429367  0.07915402  1
  O  O22  1  0.75000002  0.22570600  0.57915382  1
  O  O23  1  0.24999999  0.77429382  0.42084589  1
  O  O24  1  0.48135226  0.35382003  0.92342155  1
  O  O25  1  0.98135140  0.64617975  0.07657840  1
  O  O26  1  0.01864772  0.85382020  0.57657836  1
  O  O27  1  0.51864842  0.14617934  0.42342138  1
  O  O28  1  0.51864850  0.64617970  0.07657840  1
  O  O29  1  0.01864771  0.35382020  0.92342159  1
  O  O30  1  0.98135146  0.14617934  0.42342135  1
  O  O31  1  0.48135233  0.85382021  0.57657830  1
  O  O32  1  0.25000007  0.60537365  0.57077244  1
  O  O33  1  0.74999988  0.39462557  0.42922575  1
  O  O34  1  0.24999990  0.10537347  0.92922759  1
  O  O35  1  0.74999987  0.89462659  0.07077321  1
  O  O36  1  0.48262662  0.58375054  0.73767184  1
  O  O37  1  0.98262512  0.41624841  0.26232750  1
  O  O38  1  0.01737343  0.08375086  0.76232819  1
  O  O39  1  0.51737413  0.91624898  0.23767168  1
  O  O40  1  0.51737469  0.41624847  0.26232748  1
  O  O41  1  0.01737347  0.58375055  0.73767180  1
  O  O42  1  0.98262603  0.91624894  0.23767168  1
  O  O43  1  0.48262654  0.08375084  0.76232827  1
