# generated using pymatgen
data_Ca(PO3)2
_symmetry_space_group_name_H-M   'P 1'
_cell_length_a   7.72256749
_cell_length_b   6.98825486
_cell_length_c   16.96801196
_cell_angle_alpha   89.64420155
_cell_angle_beta   90.00000000
_cell_angle_gamma   90.00000000
_symmetry_Int_Tables_number   1
_chemical_formula_structural   Ca(PO3)2
_chemical_formula_sum   'Ca8 P16 O48'
_cell_volume   915.69962354
_cell_formula_units_Z   8
loop_
 _symmetry_equiv_pos_site_id
 _symmetry_equiv_pos_as_xyz
  1  'x, y, z'
loop_
 _atom_site_type_symbol
 _atom_site_label
 _atom_site_symmetry_multiplicity
 _atom_site_fract_x
 _atom_site_fract_y
 _atom_site_fract_z
 _atom_site_occupancy
  Ca  Ca0  1  0.86353777  0.01816185  0.17189797  1
  Ca  Ca1  1  0.36353777  0.98183815  0.32810203  1
  Ca  Ca2  1  0.13646223  0.98183815  0.82810203  1
  Ca  Ca3  1  0.63646223  0.01816185  0.67189797  1
  Ca  Ca4  1  0.38653442  0.47601461  0.39628044  1
  Ca  Ca5  1  0.88653442  0.52398539  0.10371956  1
  Ca  Ca6  1  0.61346558  0.52398539  0.60371956  1
  Ca  Ca7  1  0.11346558  0.47601461  0.89628044  1
  P  P8  1  0.69852219  0.14030543  0.46312488  1
  P  P9  1  0.19852219  0.85969457  0.03687512  1
  P  P10  1  0.30147781  0.85969457  0.53687512  1
  P  P11  1  0.80147781  0.14030543  0.96312488  1
  P  P12  1  0.99902067  0.62907701  0.30509675  1
  P  P13  1  0.49902067  0.37092299  0.19490325  1
  P  P14  1  0.00097933  0.37092299  0.69490325  1
  P  P15  1  0.50097933  0.62907701  0.80509675  1
  P  P16  1  0.99035181  0.21902656  0.35538156  1
  P  P17  1  0.49035181  0.78097344  0.14461844  1
  P  P18  1  0.00964819  0.78097344  0.64461844  1
  P  P19  1  0.50964819  0.21902656  0.85538156  1
  P  P20  1  0.78624280  0.73253349  0.91145631  1
  P  P21  1  0.28624280  0.26746651  0.58854369  1
  P  P22  1  0.21375720  0.26746651  0.08854369  1
  P  P23  1  0.71375720  0.73253349  0.41145631  1
  O  O24  1  0.16246770  0.42594490  0.03386428  1
  O  O25  1  0.66246770  0.57405510  0.46613572  1
  O  O26  1  0.83753230  0.57405510  0.96613572  1
  O  O27  1  0.33753230  0.42594490  0.53386428  1
  O  O28  1  0.59258253  0.75853031  0.34362532  1
  O  O29  1  0.09258253  0.24146969  0.15637468  1
  O  O30  1  0.40741747  0.24146969  0.65637468  1
  O  O31  1  0.90741747  0.75853031  0.84362532  1
  O  O32  1  0.55389165  0.18008069  0.40714400  1
  O  O33  1  0.05389165  0.81991931  0.09285600  1
  O  O34  1  0.44610835  0.81991931  0.59285600  1
  O  O35  1  0.94610835  0.18008069  0.90714400  1
  O  O36  1  0.56737301  0.05885000  0.80502897  1
  O  O37  1  0.06737301  0.94115000  0.69497103  1
  O  O38  1  0.43262699  0.94115000  0.19497103  1
  O  O39  1  0.93262699  0.05885000  0.30502897  1
  O  O40  1  0.55426918  0.40944552  0.80938760  1
  O  O41  1  0.05426918  0.59055448  0.69061240  1
  O  O42  1  0.23986862  0.08161158  0.03778239  1
  O  O43  1  0.94573082  0.40944552  0.30938760  1
  O  O44  1  0.32548304  0.22282122  0.88171366  1
  O  O45  1  0.82548304  0.77717878  0.61828634  1
  O  O46  1  0.67451696  0.77717878  0.11828634  1
  O  O47  1  0.17451696  0.22282122  0.38171366  1
  O  O48  1  0.62471148  0.23278823  0.93316084  1
  O  O49  1  0.12471148  0.76721177  0.56683916  1
  O  O50  1  0.37528852  0.76721177  0.06683916  1
  O  O51  1  0.87528852  0.23278823  0.43316084  1
  O  O52  1  0.73986862  0.91838842  0.46221761  1
  O  O53  1  0.90705479  0.70430097  0.38311195  1
  O  O54  1  0.26013138  0.08161158  0.53778239  1
  O  O55  1  0.76013138  0.91838842  0.96221761  1
  O  O56  1  0.67753943  0.19474611  0.54694242  1
  O  O57  1  0.17753943  0.80525389  0.95305758  1
  O  O58  1  0.32246057  0.80525389  0.45305758  1
  O  O59  1  0.82246057  0.19474611  0.04694242  1
  O  O60  1  0.31212886  0.65881165  0.81763644  1
  O  O61  1  0.81212886  0.34118835  0.68236356  1
  O  O62  1  0.68787114  0.34118835  0.18236356  1
  O  O63  1  0.18787114  0.65881165  0.31763644  1
  O  O64  1  0.58135840  0.69999524  0.73125766  1
  O  O65  1  0.08135840  0.30000476  0.76874234  1
  O  O66  1  0.41864160  0.30000476  0.26874234  1
  O  O67  1  0.91864160  0.69999524  0.23125766  1
  O  O68  1  0.59294521  0.70430097  0.88311195  1
  O  O69  1  0.09294521  0.29569903  0.61688805  1
  O  O70  1  0.40705479  0.29569903  0.11688805  1
  O  O71  1  0.44573082  0.59055448  0.19061240  1
