# generated using pymatgen
data_SiO2
_symmetry_space_group_name_H-M   'P 1'
_cell_length_a   10.91814805
_cell_length_b   10.91814805
_cell_length_c   10.14482304
_cell_angle_alpha   90.00000000
_cell_angle_beta   90.00000000
_cell_angle_gamma   133.14031532
_symmetry_Int_Tables_number   1
_chemical_formula_structural   SiO2
_chemical_formula_sum   'Si16 O32'
_cell_volume   882.42064932
_cell_formula_units_Z   16
loop_
 _symmetry_equiv_pos_site_id
 _symmetry_equiv_pos_as_xyz
  1  'x, y, z'
loop_
 _atom_site_type_symbol
 _atom_site_label
 _atom_site_symmetry_multiplicity
 _atom_site_fract_x
 _atom_site_fract_y
 _atom_site_fract_z
 _atom_site_occupancy
  Si  Si0  1  0.12729963  0.23754286  0.88923417  1
  Si  Si1  1  0.23754286  0.12729963  0.11076583  1
  Si  Si2  1  0.26245714  0.37270037  0.61076583  1
  Si  Si3  1  0.37270037  0.26245714  0.38923417  1
  Si  Si4  1  0.87270037  0.76245714  0.11076583  1
  Si  Si5  1  0.76245714  0.87270037  0.88923417  1
  Si  Si6  1  0.73754286  0.62729963  0.38923417  1
  Si  Si7  1  0.62729963  0.73754286  0.61076583  1
  Si  Si8  1  0.11719960  0.51491791  0.89325640  1
  Si  Si9  1  0.51491791  0.11719960  0.10674360  1
  Si  Si10  1  0.98508209  0.38280040  0.60674360  1
  Si  Si11  1  0.38280040  0.98508209  0.39325640  1
  Si  Si12  1  0.88280040  0.48508209  0.10674360  1
  Si  Si13  1  0.48508209  0.88280040  0.89325640  1
  Si  Si14  1  0.01491791  0.61719960  0.39325640  1
  Si  Si15  1  0.61719960  0.01491791  0.60674360  1
  O  O16  1  0.21599656  0.21599656  -0.00000000  1
  O  O17  1  0.28400344  0.28400344  0.50000000  1
  O  O18  1  0.78400344  0.78400344  -0.00000000  1
  O  O19  1  0.71599656  0.71599656  0.50000000  1
  O  O20  1  0.93201957  0.06798043  0.87472715  1
  O  O21  1  0.06798043  0.93201957  0.12527285  1
  O  O22  1  0.43201957  0.56798043  0.62527285  1
  O  O23  1  0.56798043  0.43201957  0.37472715  1
  O  O24  1  0.22069202  0.27930798  0.75000000  1
  O  O25  1  0.27930798  0.22069202  0.25000000  1
  O  O26  1  0.77930798  0.72069202  0.25000000  1
  O  O27  1  0.72069202  0.77930798  0.75000000  1
  O  O28  1  0.14104210  0.38878758  0.93138342  1
  O  O29  1  0.38878758  0.14104210  0.06861658  1
  O  O30  1  0.11121242  0.35895790  0.56861658  1
  O  O31  1  0.35895790  0.11121242  0.43138342  1
  O  O32  1  0.85895790  0.61121242  0.06861658  1
  O  O33  1  0.61121242  0.85895790  0.93138342  1
  O  O34  1  0.88878758  0.64104210  0.43138342  1
  O  O35  1  0.64104210  0.88878758  0.56861658  1
  O  O36  1  0.29663846  0.70336154  0.89123296  1
  O  O37  1  0.70336154  0.29663846  0.10876704  1
  O  O38  1  0.79663846  0.20336154  0.60876704  1
  O  O39  1  0.20336154  0.79663846  0.39123296  1
  O  O40  1  0.03156935  0.46843065  0.75000000  1
  O  O41  1  0.46843065  0.03156935  0.25000000  1
  O  O42  1  0.96843065  0.53156935  0.25000000  1
  O  O43  1  0.53156935  0.96843065  0.75000000  1
  O  O44  1  -0.00000000  0.50000000  -0.00000000  1
  O  O45  1  0.50000000  -0.00000000  -0.00000000  1
  O  O46  1  -0.00000000  0.50000000  0.50000000  1
  O  O47  1  0.50000000  -0.00000000  0.50000000  1
