# generated using pymatgen
data_SiO2
_symmetry_space_group_name_H-M   'P 1'
_cell_length_a   15.88483190
_cell_length_b   9.52246335
_cell_length_c   8.55610682
_cell_angle_alpha   90.00000000
_cell_angle_beta   90.00000000
_cell_angle_gamma   90.00000000
_symmetry_Int_Tables_number   1
_chemical_formula_structural   SiO2
_chemical_formula_sum   'Si24 O48'
_cell_volume   1294.22007225
_cell_formula_units_Z   24
loop_
 _symmetry_equiv_pos_site_id
 _symmetry_equiv_pos_as_xyz
  1  'x, y, z'
loop_
 _atom_site_type_symbol
 _atom_site_label
 _atom_site_symmetry_multiplicity
 _atom_site_fract_x
 _atom_site_fract_y
 _atom_site_fract_z
 _atom_site_occupancy
  Si  Si0  1  0.17264364  0.65891592  0.43716715  1
  Si  Si1  1  0.17264364  0.34108408  0.56283285  1
  Si  Si2  1  0.82735636  0.65891592  0.06283285  1
  Si  Si3  1  0.82735636  0.34108408  0.93716715  1
  Si  Si4  1  0.82735636  0.34108408  0.56283285  1
  Si  Si5  1  0.82735636  0.65891592  0.43716715  1
  Si  Si6  1  0.17264364  0.34108408  0.93716715  1
  Si  Si7  1  0.17264364  0.65891592  0.06283285  1
  Si  Si8  1  0.67264364  0.15891592  0.43716715  1
  Si  Si9  1  0.67264364  0.84108408  0.56283285  1
  Si  Si10  1  0.32735636  0.15891592  0.06283285  1
  Si  Si11  1  0.32735636  0.84108408  0.93716715  1
  Si  Si12  1  0.32735636  0.84108408  0.56283285  1
  Si  Si13  1  0.32735636  0.15891592  0.43716715  1
  Si  Si14  1  0.67264364  0.84108408  0.93716715  1
  Si  Si15  1  0.67264364  0.15891592  0.06283285  1
  Si  Si16  1  -0.00000000  0.34127532  0.43720624  1
  Si  Si17  1  -0.00000000  0.65872468  0.56279376  1
  Si  Si18  1  -0.00000000  0.34127532  0.06279376  1
  Si  Si19  1  -0.00000000  0.65872468  0.93720624  1
  Si  Si20  1  0.50000000  0.84127532  0.43720624  1
  Si  Si21  1  0.50000000  0.15872468  0.56279376  1
  Si  Si22  1  0.50000000  0.84127532  0.06279376  1
  Si  Si23  1  0.50000000  0.15872468  0.93720624  1
  O  O24  1  0.08557024  0.73010395  0.49864371  1
  O  O25  1  0.08557024  0.26989605  0.50135629  1
  O  O26  1  0.91442976  0.73010395  0.00135629  1
  O  O27  1  0.91442976  0.26989605  0.99864371  1
  O  O28  1  0.91442976  0.26989605  0.50135629  1
  O  O29  1  0.91442976  0.73010395  0.49864371  1
  O  O30  1  0.08557024  0.26989605  0.99864371  1
  O  O31  1  0.08557024  0.73010395  0.00135629  1
  O  O32  1  0.58557024  0.23010395  0.49864371  1
  O  O33  1  0.58557024  0.76989605  0.50135629  1
  O  O34  1  0.41442976  0.23010395  0.00135629  1
  O  O35  1  0.41442976  0.76989605  0.99864371  1
  O  O36  1  0.41442976  0.76989605  0.50135629  1
  O  O37  1  0.41442976  0.23010395  0.49864371  1
  O  O38  1  0.58557024  0.76989605  0.99864371  1
  O  O39  1  0.58557024  0.23010395  0.00135629  1
  O  O40  1  0.18173221  0.50000000  0.50000000  1
  O  O41  1  0.81826779  0.50000000  -0.00000000  1
  O  O42  1  0.81826779  0.50000000  0.50000000  1
  O  O43  1  0.18173221  0.50000000  -0.00000000  1
  O  O44  1  0.68173221  -0.00000000  0.50000000  1
  O  O45  1  0.31826779  -0.00000000  -0.00000000  1
  O  O46  1  0.31826779  -0.00000000  0.50000000  1
  O  O47  1  0.68173221  -0.00000000  -0.00000000  1
  O  O48  1  0.17258772  0.65746073  0.25000000  1
  O  O49  1  0.17258772  0.34253927  0.75000000  1
  O  O50  1  0.82741228  0.65746073  0.25000000  1
  O  O51  1  0.82741228  0.34253927  0.75000000  1
  O  O52  1  0.67258772  0.15746073  0.25000000  1
  O  O53  1  0.67258772  0.84253927  0.75000000  1
  O  O54  1  0.32741228  0.15746073  0.25000000  1
  O  O55  1  0.32741228  0.84253927  0.75000000  1
  O  O56  1  0.25000000  0.75000000  0.50000000  1
  O  O57  1  0.25000000  0.25000000  0.50000000  1
  O  O58  1  0.75000000  0.75000000  -0.00000000  1
  O  O59  1  0.75000000  0.25000000  -0.00000000  1
  O  O60  1  0.75000000  0.25000000  0.50000000  1
  O  O61  1  0.75000000  0.75000000  0.50000000  1
  O  O62  1  0.25000000  0.25000000  -0.00000000  1
  O  O63  1  0.25000000  0.75000000  -0.00000000  1
  O  O64  1  -0.00000000  0.33793601  0.25000000  1
  O  O65  1  -0.00000000  0.66206399  0.75000000  1
  O  O66  1  0.50000000  0.83793601  0.25000000  1
  O  O67  1  0.50000000  0.16206399  0.75000000  1
  O  O68  1  -0.00000000  0.50000000  0.50000000  1
  O  O69  1  -0.00000000  0.50000000  -0.00000000  1
  O  O70  1  0.50000000  -0.00000000  0.50000000  1
  O  O71  1  0.50000000  -0.00000000  -0.00000000  1
