# generated using pymatgen
data_SiO2
_symmetry_space_group_name_H-M   'P 1'
_cell_length_a   10.67645033
_cell_length_b   10.67645033
_cell_length_c   10.37960632
_cell_angle_alpha   90.00000000
_cell_angle_beta   90.00000000
_cell_angle_gamma   130.79603353
_symmetry_Int_Tables_number   1
_chemical_formula_structural   SiO2
_chemical_formula_sum   'Si16 O32'
_cell_volume   895.68157857
_cell_formula_units_Z   16
loop_
 _symmetry_equiv_pos_site_id
 _symmetry_equiv_pos_as_xyz
  1  'x, y, z'
loop_
 _atom_site_type_symbol
 _atom_site_label
 _atom_site_symmetry_multiplicity
 _atom_site_fract_x
 _atom_site_fract_y
 _atom_site_fract_z
 _atom_site_occupancy
  Si  Si0  1  0.72585327  0.63299064  0.38318735  1
  Si  Si1  1  0.63299064  0.72585327  0.61681265  1
  Si  Si2  1  0.86700936  0.77414673  0.11681265  1
  Si  Si3  1  0.77414673  0.86700936  0.88318735  1
  Si  Si4  1  0.27414673  0.36700936  0.61681265  1
  Si  Si5  1  0.36700936  0.27414673  0.38318735  1
  Si  Si6  1  0.13299064  0.22585327  0.88318735  1
  Si  Si7  1  0.22585327  0.13299064  0.11681265  1
  Si  Si8  1  0.02554933  0.61412251  0.11524420  1
  Si  Si9  1  0.61412251  0.02554933  0.88475580  1
  Si  Si10  1  0.88587749  0.47445067  0.38475580  1
  Si  Si11  1  0.47445067  0.88587749  0.61524420  1
  Si  Si12  1  0.97445067  0.38587749  0.88475580  1
  Si  Si13  1  0.38587749  0.97445067  0.11524420  1
  Si  Si14  1  0.11412251  0.52554933  0.61524420  1
  Si  Si15  1  0.52554933  0.11412251  0.38475580  1
  O  O16  1  0.74195972  0.74195972  0.50000000  1
  O  O17  1  0.75804028  0.75804028  -0.00000000  1
  O  O18  1  0.25804028  0.25804028  0.50000000  1
  O  O19  1  0.24195972  0.24195972  -0.00000000  1
  O  O20  1  0.76912852  0.73087148  0.25000000  1
  O  O21  1  0.73087148  0.76912852  0.75000000  1
  O  O22  1  0.23087148  0.26912852  0.75000000  1
  O  O23  1  0.26912852  0.23087148  0.25000000  1
  O  O24  1  0.85133679  0.59942937  0.40636736  1
  O  O25  1  0.59942937  0.85133679  0.59363264  1
  O  O26  1  0.90057063  0.64866321  0.09363264  1
  O  O27  1  0.64866321  0.90057063  0.90636736  1
  O  O28  1  0.14866321  0.40057063  0.59363264  1
  O  O29  1  0.40057063  0.14866321  0.40636736  1
  O  O30  1  0.09942937  0.35133679  0.90636736  1
  O  O31  1  0.35133679  0.09942937  0.09363264  1
  O  O32  1  0.53984540  0.46015460  0.37483954  1
  O  O33  1  0.46015460  0.53984540  0.62516046  1
  O  O34  1  0.03984540  0.96015460  0.12516046  1
  O  O35  1  0.96015460  0.03984540  0.87483954  1
  O  O36  1  0.98250141  0.51749859  0.25000000  1
  O  O37  1  0.51749859  0.98250141  0.75000000  1
  O  O38  1  0.01749859  0.48250141  0.75000000  1
  O  O39  1  0.48250141  0.01749859  0.25000000  1
  O  O40  1  -0.00000000  0.50000000  -0.00000000  1
  O  O41  1  0.50000000  0.00000000  -0.00000000  1
  O  O42  1  -0.00000000  0.50000000  0.50000000  1
  O  O43  1  0.50000000  0.00000000  0.50000000  1
  O  O44  1  0.21448326  0.78551674  0.11805140  1
  O  O45  1  0.78551674  0.21448326  0.88194860  1
  O  O46  1  0.71448326  0.28551674  0.38194860  1
  O  O47  1  0.28551674  0.71448326  0.61805140  1
