# generated using pymatgen
data_SiO2
_symmetry_space_group_name_H-M   'P 1'
_cell_length_a   13.68029663
_cell_length_b   13.68029663
_cell_length_c   7.52367217
_cell_angle_alpha   90.00000000
_cell_angle_beta   90.00000000
_cell_angle_gamma   97.16150959
_symmetry_Int_Tables_number   1
_chemical_formula_structural   SiO2
_chemical_formula_sum   'Si24 O48'
_cell_volume   1397.07439975
_cell_formula_units_Z   24
loop_
 _symmetry_equiv_pos_site_id
 _symmetry_equiv_pos_as_xyz
  1  'x, y, z'
loop_
 _atom_site_type_symbol
 _atom_site_label
 _atom_site_symmetry_multiplicity
 _atom_site_fract_x
 _atom_site_fract_y
 _atom_site_fract_z
 _atom_site_occupancy
  Si  Si0  1  0.23228468  0.37820945  0.04326675  1
  Si  Si1  1  0.37820945  0.23228468  0.95673325  1
  Si  Si2  1  0.62179055  0.76771532  0.45673325  1
  Si  Si3  1  0.76771532  0.62179055  0.54326675  1
  Si  Si4  1  0.76771532  0.62179055  0.95673325  1
  Si  Si5  1  0.62179055  0.76771532  0.04326675  1
  Si  Si6  1  0.37820945  0.23228468  0.54326675  1
  Si  Si7  1  0.23228468  0.37820945  0.45673325  1
  Si  Si8  1  0.99261283  0.61393289  0.04478576  1
  Si  Si9  1  0.61393289  0.99261283  0.95521424  1
  Si  Si10  1  0.38606711  0.00738717  0.45521424  1
  Si  Si11  1  0.00738717  0.38606711  0.54478576  1
  Si  Si12  1  0.00738717  0.38606711  0.95521424  1
  Si  Si13  1  0.38606711  0.00738717  0.04478576  1
  Si  Si14  1  0.61393289  0.99261283  0.54478576  1
  Si  Si15  1  0.99261283  0.61393289  0.45521424  1
  Si  Si16  1  0.70775409  0.46597259  0.25000000  1
  Si  Si17  1  0.46597259  0.70775409  0.75000000  1
  Si  Si18  1  0.53402741  0.29224591  0.25000000  1
  Si  Si19  1  0.29224591  0.53402741  0.75000000  1
  Si  Si20  1  0.86242663  0.31127328  0.25000000  1
  Si  Si21  1  0.31127328  0.86242663  0.75000000  1
  Si  Si22  1  0.68872672  0.13757337  0.25000000  1
  Si  Si23  1  0.13757337  0.68872672  0.75000000  1
  O  O24  1  0.27752709  0.27752709  0.00000000  1
  O  O25  1  0.72247291  0.72247291  0.50000000  1
  O  O26  1  0.72247291  0.72247291  0.00000000  1
  O  O27  1  0.27752709  0.27752709  0.50000000  1
  O  O28  1  0.24743001  0.40668591  0.25000000  1
  O  O29  1  0.40668591  0.24743001  0.75000000  1
  O  O30  1  0.59331409  0.75256999  0.25000000  1
  O  O31  1  0.75256999  0.59331409  0.75000000  1
  O  O32  1  0.28809485  0.46694507  0.92641767  1
  O  O33  1  0.46694507  0.28809485  0.07358233  1
  O  O34  1  0.53305493  0.71190515  0.57358233  1
  O  O35  1  0.71190515  0.53305493  0.42641767  1
  O  O36  1  0.71190515  0.53305493  0.07358233  1
  O  O37  1  0.53305493  0.71190515  0.92641767  1
  O  O38  1  0.46694507  0.28809485  0.42641767  1
  O  O39  1  0.28809485  0.46694507  0.57358233  1
  O  O40  1  0.11699221  0.36109531  0.99506358  1
  O  O41  1  0.36109531  0.11699221  0.00493642  1
  O  O42  1  0.63890469  0.88300779  0.50493642  1
  O  O43  1  0.88300779  0.63890469  0.49506358  1
  O  O44  1  0.88300779  0.63890469  0.00493642  1
  O  O45  1  0.63890469  0.88300779  0.99506358  1
  O  O46  1  0.36109531  0.11699221  0.49506358  1
  O  O47  1  0.11699221  0.36109531  0.50493642  1
  O  O48  1  0.01960617  0.63544522  0.25000000  1
  O  O49  1  0.63544522  0.01960617  0.75000000  1
  O  O50  1  0.36455478  0.98039383  0.25000000  1
  O  O51  1  0.98039383  0.36455478  0.75000000  1
  O  O52  1  0.00000000  0.50000000  0.00000000  1
  O  O53  1  0.50000000  -0.00000000  0.00000000  1
  O  O54  1  0.50000000  -0.00000000  0.50000000  1
  O  O55  1  0.00000000  0.50000000  0.50000000  1
  O  O56  1  0.06979868  0.68384197  0.92544821  1
  O  O57  1  0.68384197  0.06979868  0.07455179  1
  O  O58  1  0.31615803  0.93020132  0.57455179  1
  O  O59  1  0.93020132  0.31615803  0.42544821  1
  O  O60  1  0.93020132  0.31615803  0.07455179  1
  O  O61  1  0.31615803  0.93020132  0.92544821  1
  O  O62  1  0.68384197  0.06979868  0.42544821  1
  O  O63  1  0.06979868  0.68384197  0.57455179  1
  O  O64  1  0.60629384  0.39370616  0.25000000  1
  O  O65  1  0.39370616  0.60629384  0.75000000  1
  O  O66  1  0.80055085  0.40420161  0.25000000  1
  O  O67  1  0.40420161  0.80055085  0.75000000  1
  O  O68  1  0.59579839  0.19944915  0.25000000  1
  O  O69  1  0.19944915  0.59579839  0.75000000  1
  O  O70  1  0.79041736  0.20958264  0.25000000  1
  O  O71  1  0.20958264  0.79041736  0.75000000  1
