# generated using pymatgen
data_SiO2
_symmetry_space_group_name_H-M   'P 1'
_cell_length_a   5.23309703
_cell_length_b   14.08017597
_cell_length_c   17.16209978
_cell_angle_alpha   90.00000000
_cell_angle_beta   90.00000000
_cell_angle_gamma   90.00000000
_symmetry_Int_Tables_number   1
_chemical_formula_structural   SiO2
_chemical_formula_sum   'Si24 O48'
_cell_volume   1264.55374612
_cell_formula_units_Z   24
loop_
 _symmetry_equiv_pos_site_id
 _symmetry_equiv_pos_as_xyz
  1  'x, y, z'
loop_
 _atom_site_type_symbol
 _atom_site_label
 _atom_site_symmetry_multiplicity
 _atom_site_fract_x
 _atom_site_fract_y
 _atom_site_fract_z
 _atom_site_occupancy
  Si  Si0  1  -0.00000000  0.25765035  0.05381572  1
  Si  Si1  1  -0.00000000  0.74234965  0.94618428  1
  Si  Si2  1  -0.00000000  0.25765035  0.44618428  1
  Si  Si3  1  -0.00000000  0.74234965  0.55381572  1
  Si  Si4  1  0.50000000  0.75765035  0.05381572  1
  Si  Si5  1  0.50000000  0.24234965  0.94618428  1
  Si  Si6  1  0.50000000  0.75765035  0.44618428  1
  Si  Si7  1  0.50000000  0.24234965  0.55381572  1
  Si  Si8  1  -0.00000000  0.07124636  0.15764404  1
  Si  Si9  1  -0.00000000  0.92875364  0.84235596  1
  Si  Si10  1  -0.00000000  0.07124636  0.34235596  1
  Si  Si11  1  -0.00000000  0.92875364  0.65764404  1
  Si  Si12  1  0.50000000  0.57124636  0.15764404  1
  Si  Si13  1  0.50000000  0.42875364  0.84235596  1
  Si  Si14  1  0.50000000  0.57124636  0.34235596  1
  Si  Si15  1  0.50000000  0.42875364  0.65764404  1
  Si  Si16  1  0.50000000  0.97125910  0.09082942  1
  Si  Si17  1  0.50000000  0.02874090  0.90917058  1
  Si  Si18  1  0.50000000  0.97125910  0.40917058  1
  Si  Si19  1  0.50000000  0.02874090  0.59082942  1
  Si  Si20  1  -0.00000000  0.47125910  0.09082942  1
  Si  Si21  1  -0.00000000  0.52874090  0.90917058  1
  Si  Si22  1  -0.00000000  0.47125910  0.40917058  1
  Si  Si23  1  -0.00000000  0.52874090  0.59082942  1
  O  O24  1  -0.00000000  0.17388896  0.11692855  1
  O  O25  1  -0.00000000  0.82611104  0.88307145  1
  O  O26  1  -0.00000000  0.17388896  0.38307145  1
  O  O27  1  -0.00000000  0.82611104  0.61692855  1
  O  O28  1  0.50000000  0.67388896  0.11692855  1
  O  O29  1  0.50000000  0.32611104  0.88307145  1
  O  O30  1  0.50000000  0.67388896  0.38307145  1
  O  O31  1  0.50000000  0.32611104  0.61692855  1
  O  O32  1  0.25000000  0.25000000  0.00000000  1
  O  O33  1  0.25000000  0.75000000  0.00000000  1
  O  O34  1  0.75000000  0.25000000  0.50000000  1
  O  O35  1  0.75000000  0.75000000  0.50000000  1
  O  O36  1  0.75000000  0.75000000  0.00000000  1
  O  O37  1  0.75000000  0.25000000  0.00000000  1
  O  O38  1  0.25000000  0.75000000  0.50000000  1
  O  O39  1  0.25000000  0.25000000  0.50000000  1
  O  O40  1  -0.00000000  0.35743215  0.09954777  1
  O  O41  1  -0.00000000  0.64256785  0.90045223  1
  O  O42  1  -0.00000000  0.35743215  0.40045223  1
  O  O43  1  -0.00000000  0.64256785  0.59954777  1
  O  O44  1  0.50000000  0.85743215  0.09954777  1
  O  O45  1  0.50000000  0.14256785  0.90045223  1
  O  O46  1  0.50000000  0.85743215  0.40045223  1
  O  O47  1  0.50000000  0.14256785  0.59954777  1
  O  O48  1  0.75011380  0.01283506  0.13239741  1
  O  O49  1  0.75011380  0.98716494  0.86760259  1
  O  O50  1  0.24988620  0.01283506  0.36760259  1
  O  O51  1  0.24988620  0.98716494  0.63239741  1
  O  O52  1  0.24988620  0.98716494  0.86760259  1
  O  O53  1  0.24988620  0.01283506  0.13239741  1
  O  O54  1  0.75011380  0.98716494  0.63239741  1
  O  O55  1  0.75011380  0.01283506  0.36760259  1
  O  O56  1  0.25011380  0.51283506  0.13239741  1
  O  O57  1  0.25011380  0.48716494  0.86760259  1
  O  O58  1  0.74988620  0.51283506  0.36760259  1
  O  O59  1  0.74988620  0.48716494  0.63239741  1
  O  O60  1  0.74988620  0.48716494  0.86760259  1
  O  O61  1  0.74988620  0.51283506  0.13239741  1
  O  O62  1  0.25011380  0.48716494  0.63239741  1
  O  O63  1  0.25011380  0.51283506  0.36760259  1
  O  O64  1  -0.00000000  0.08635167  0.25000000  1
  O  O65  1  -0.00000000  0.91364833  0.75000000  1
  O  O66  1  0.50000000  0.58635167  0.25000000  1
  O  O67  1  0.50000000  0.41364833  0.75000000  1
  O  O68  1  0.50000000  0.00000000  0.00000000  1
  O  O69  1  0.50000000  0.00000000  0.50000000  1
  O  O70  1  -0.00000000  0.50000000  0.00000000  1
  O  O71  1  -0.00000000  0.50000000  0.50000000  1
