# generated using pymatgen
data_SiO2
_symmetry_space_group_name_H-M   'P 1'
_cell_length_a   12.46202598
_cell_length_b   12.46202598
_cell_length_c   12.46202598
_cell_angle_alpha   144.88389815
_cell_angle_beta   109.88634899
_cell_angle_gamma   80.90083928
_symmetry_Int_Tables_number   1
_chemical_formula_structural   SiO2
_chemical_formula_sum   'Si18 O36'
_cell_volume   1020.78166256
_cell_formula_units_Z   18
loop_
 _symmetry_equiv_pos_site_id
 _symmetry_equiv_pos_as_xyz
  1  'x, y, z'
loop_
 _atom_site_type_symbol
 _atom_site_label
 _atom_site_symmetry_multiplicity
 _atom_site_fract_x
 _atom_site_fract_y
 _atom_site_fract_z
 _atom_site_occupancy
  Si  Si0  1  0.38253807  0.39135540  0.40287750  1
  Si  Si1  1  0.98847790  0.97966157  0.59712250  1
  Si  Si2  1  0.38253807  0.97966157  0.99118368  1
  Si  Si3  1  0.98847790  0.39135540  0.00881632  1
  Si  Si4  1  0.74369216  0.33612532  0.99515560  1
  Si  Si5  1  0.34096972  0.74853756  0.00484440  1
  Si  Si6  1  0.74369216  0.74853756  0.40756683  1
  Si  Si7  1  0.34096972  0.33612532  0.59243317  1
  Si  Si8  1  0.15039071  0.94760238  0.20278833  1
  Si  Si9  1  0.74481405  0.94760238  0.79721167  1
  Si  Si10  1  0.49753330  0.79795983  0.69957247  1
  Si  Si11  1  0.09838736  0.79795983  0.30042753  1
  Si  Si12  1  0.11590583  0.40929088  0.29338404  1
  Si  Si13  1  0.11590583  0.82252179  0.70661596  1
  Si  Si14  1  0.48733191  0.28143295  0.79410104  1
  Si  Si15  1  0.48733191  0.69323087  0.20589896  1
  Si  Si16  1  0.36798953  0.86798953  0.50000000  1
  Si  Si17  1  0.99667632  0.99667632  0.00000000  1
  O  O18  1  0.47669537  0.57738224  0.54832201  1
  O  O19  1  0.02906123  0.92837436  0.45167799  1
  O  O20  1  0.47669537  0.92837436  0.89931313  1
  O  O21  1  0.02906123  0.57738224  0.10068687  1
  O  O22  1  0.38998966  0.37088854  0.51712316  1
  O  O23  1  0.85376537  0.87286749  0.48287684  1
  O  O24  1  0.38998966  0.87286749  0.01910112  1
  O  O25  1  0.85376537  0.37088854  0.98089888  1
  O  O26  1  0.41299000  0.20703998  0.20595002  1
  O  O27  1  0.00108996  0.20703998  0.79404998  1
  O  O28  1  0.25333967  0.41130970  0.34023980  1
  O  O29  1  0.07106790  0.91309887  0.65976020  1
  O  O30  1  0.25333967  0.91309887  0.84202997  1
  O  O31  1  0.07106790  0.41130970  0.15797003  1
  O  O32  1  0.62558141  0.28600207  0.84285987  1
  O  O33  1  0.44314319  0.78272154  0.15714013  1
  O  O34  1  0.62558141  0.78272154  0.33957934  1
  O  O35  1  0.44314319  0.28600207  0.66042066  1
  O  O36  1  0.74776206  0.16309491  0.93580248  1
  O  O37  1  0.22729343  0.81195858  0.06419752  1
  O  O38  1  0.74776206  0.81195858  0.58466615  1
  O  O39  1  0.22729343  0.16309491  0.41533385  1
  O  O40  1  0.74650512  0.52480045  0.22170467  1
  O  O41  1  0.30309479  0.52480045  0.77829533  1
  O  O42  1  0.03760698  0.94698236  0.09062262  1
  O  O43  1  0.85635974  0.94698236  0.90937738  1
  O  O44  1  0.10547822  0.86768013  0.23779909  1
  O  O45  1  0.62988104  0.86768013  0.76220091  1
  O  O46  1  0.40808418  0.81786647  0.59021771  1
  O  O47  1  0.22764777  0.81786647  0.40978229  1
  O  O48  1  0.09363607  0.59363607  0.50000000  1
  O  O49  1  0.04520671  0.22114741  0.17593869  1
  O  O50  1  0.04520671  0.86926802  0.82406131  1
  O  O51  1  0.46329297  0.46329297  -0.00000000  1
  O  O52  1  0.41690084  0.09216776  0.67526692  1
  O  O53  1  0.41690084  0.74163393  0.32473308  1
