# generated using pymatgen
data_BaBe2Si2O7
_symmetry_space_group_name_H-M   'P 1'
_cell_length_a   4.67397451
_cell_length_b   9.81031425
_cell_length_c   11.70088373
_cell_angle_alpha   90.00000000
_cell_angle_beta   90.00000000
_cell_angle_gamma   90.00000000
_symmetry_Int_Tables_number   1
_chemical_formula_structural   BaBe2Si2O7
_chemical_formula_sum   'Ba4 Be8 Si8 O28'
_cell_volume   536.52247907
_cell_formula_units_Z   4
loop_
 _symmetry_equiv_pos_site_id
 _symmetry_equiv_pos_as_xyz
  1  'x, y, z'
loop_
 _atom_site_type_symbol
 _atom_site_label
 _atom_site_symmetry_multiplicity
 _atom_site_fract_x
 _atom_site_fract_y
 _atom_site_fract_z
 _atom_site_occupancy
  Ba  Ba0  1  0.75192906  0.84859435  0.25000000  1
  Ba  Ba1  1  0.25192806  0.65140565  0.75000000  1
  Ba  Ba2  1  0.74807094  0.34859435  0.25000000  1
  Ba  Ba3  1  0.24807094  0.15140565  0.75000000  1
  Be  Be4  1  0.70455476  0.16346192  0.50067812  1
  Be  Be5  1  0.70455476  0.16346192  0.99932188  1
  Be  Be6  1  0.20455476  0.33653808  0.00067812  1
  Be  Be7  1  0.79544524  0.66346192  0.50067812  1
  Be  Be8  1  0.29544524  0.83653808  0.49932188  1
  Be  Be9  1  0.20455476  0.33653808  0.49932188  1
  Be  Be10  1  0.79544524  0.66346192  0.99932188  1
  Be  Be11  1  0.29544524  0.83653808  0.00067812  1
  Si  Si12  1  0.20262099  0.08855185  0.12182631  1
  Si  Si13  1  0.70262099  0.41144815  0.87817369  1
  Si  Si14  1  0.29737901  0.58855185  0.37817369  1
  Si  Si15  1  0.79737901  0.91144815  0.62182631  1
  Si  Si16  1  0.79737901  0.91144815  0.87817369  1
  Si  Si17  1  0.29737901  0.58855185  0.12182631  1
  Si  Si18  1  0.70262099  0.41144815  0.62182631  1
  Si  Si19  1  0.20262099  0.08855185  0.37817369  1
  O  O20  1  0.70236123  0.85595537  0.75000000  1
  O  O21  1  0.29763877  0.14404463  0.25000000  1
  O  O22  1  0.79763877  0.35595537  0.75000000  1
  O  O23  1  0.20236123  0.64404463  0.25000000  1
  O  O24  1  0.86106031  0.10893866  0.11235710  1
  O  O25  1  0.36106031  0.39106134  0.88764290  1
  O  O26  1  0.63893969  0.60893866  0.38764290  1
  O  O27  1  0.13893969  0.89106134  0.61235710  1
  O  O28  1  0.13893969  0.89106134  0.88764290  1
  O  O29  1  0.63893969  0.60893866  0.11235710  1
  O  O30  1  0.36106031  0.39106134  0.61235710  1
  O  O31  1  0.86106031  0.10893866  0.38764290  1
  O  O32  1  0.21535238  0.43003391  0.38638412  1
  O  O33  1  0.71535238  0.06996609  0.61361588  1
  O  O34  1  0.28464762  0.93003391  0.11361588  1
  O  O35  1  0.78464762  0.56996609  0.88638412  1
  O  O36  1  0.78464762  0.56996609  0.61361588  1
  O  O37  1  0.28464762  0.93003391  0.38638412  1
  O  O38  1  0.71535238  0.06996609  0.88638412  1
  O  O39  1  0.21535238  0.43003391  0.11361588  1
  O  O40  1  0.36171502  0.18863912  0.46945343  1
  O  O41  1  0.86171502  0.31136088  0.53054657  1
  O  O42  1  0.13828498  0.68863912  0.03054657  1
  O  O43  1  0.63828498  0.81136088  0.96945343  1
  O  O44  1  0.63828498  0.81136088  0.53054657  1
  O  O45  1  0.13828498  0.68863912  0.46945343  1
  O  O46  1  0.86171502  0.31136088  0.96945343  1
  O  O47  1  0.36171502  0.18863912  0.03054657  1
