# generated using pymatgen
data_CaB3H5O8
_symmetry_space_group_name_H-M   'P 1'
_cell_length_a   11.19390279
_cell_length_b   6.04063088
_cell_length_c   8.79262649
_cell_angle_alpha   68.47033126
_cell_angle_beta   90.00000000
_cell_angle_gamma   90.00000000
_symmetry_Int_Tables_number   1
_chemical_formula_structural   CaB3H5O8
_chemical_formula_sum   'Ca4 B12 H20 O32'
_cell_volume   553.05930624
_cell_formula_units_Z   4
loop_
 _symmetry_equiv_pos_site_id
 _symmetry_equiv_pos_as_xyz
  1  'x, y, z'
loop_
 _atom_site_type_symbol
 _atom_site_label
 _atom_site_symmetry_multiplicity
 _atom_site_fract_x
 _atom_site_fract_y
 _atom_site_fract_z
 _atom_site_occupancy
  Ca  Ca0  1  0.29472640  0.26586136  0.13232591  1
  Ca  Ca1  1  0.79472640  0.73413864  0.36767409  1
  Ca  Ca2  1  0.70527360  0.73413864  0.86767409  1
  Ca  Ca3  1  0.20527360  0.26586136  0.63232591  1
  B  B4  1  0.28917315  0.68391042  0.83017515  1
  B  B5  1  0.78917315  0.31608958  0.66982485  1
  B  B6  1  0.71082685  0.31608958  0.16982485  1
  B  B7  1  0.21082685  0.68391042  0.33017515  1
  B  B8  1  0.33145457  0.83534368  0.53301427  1
  B  B9  1  0.83145457  0.16465632  0.96698573  1
  B  B10  1  0.66854543  0.16465632  0.46698573  1
  B  B11  1  0.16854543  0.83534368  0.03301427  1
  B  B12  1  0.44757918  0.48842941  0.72281386  1
  B  B13  1  0.94757918  0.51157059  0.77718614  1
  B  B14  1  0.55242082  0.51157059  0.27718614  1
  B  B15  1  0.05242082  0.48842941  0.22281386  1
  H  H16  1  0.42371676  0.13927575  0.41256171  1
  H  H17  1  0.92371676  0.86072425  0.08743829  1
  H  H18  1  0.57628324  0.86072425  0.58743829  1
  H  H19  1  0.07628324  0.13927575  0.91256171  1
  H  H20  1  0.60829612  0.31700172  0.79960580  1
  H  H21  1  0.10829612  0.68299828  0.70039420  1
  H  H22  1  0.39170388  0.68299828  0.20039420  1
  H  H23  1  0.89170388  0.31700172  0.29960580  1
  H  H24  1  0.47009478  0.28933920  0.57854379  1
  H  H25  1  0.97009478  0.71066080  0.92145621  1
  H  H26  1  0.52990522  0.71066080  0.42145621  1
  H  H27  1  0.02990522  0.28933920  0.07854379  1
  H  H28  1  0.53242446  0.98209537  0.18028999  1
  H  H29  1  0.03242446  0.01790463  0.31971001  1
  H  H30  1  0.46757554  0.01790463  0.81971001  1
  H  H31  1  0.96757554  0.98209537  0.68028999  1
  H  H32  1  0.52909903  0.21768159  0.01584924  1
  H  H33  1  0.02909903  0.78231841  0.48415076  1
  H  H34  1  0.47090097  0.78231841  0.98415076  1
  H  H35  1  0.97090097  0.21768159  0.51584924  1
  O  O36  1  0.25534076  0.68390185  0.47419005  1
  O  O37  1  0.75534076  0.31609815  0.02580995  1
  O  O38  1  0.74465924  0.31609815  0.52580995  1
  O  O39  1  0.24465924  0.68390185  0.97419005  1
  O  O40  1  0.26752715  0.85691086  0.68042291  1
  O  O41  1  0.76752715  0.14308914  0.81957709  1
  O  O42  1  0.73247285  0.14308914  0.31957709  1
  O  O43  1  0.23247285  0.85691086  0.18042291  1
  O  O44  1  0.34291789  0.07275219  0.41200792  1
  O  O45  1  0.84291789  0.92724781  0.08799208  1
  O  O46  1  0.65708211  0.92724781  0.58799208  1
  O  O47  1  0.15708211  0.07275219  0.91200792  1
  O  O48  1  0.35331383  0.48329517  0.84289221  1
  O  O49  1  0.85331383  0.51670483  0.65710779  1
  O  O50  1  0.64668617  0.51670483  0.15710779  1
  O  O51  1  0.14668617  0.48329517  0.34289221  1
  O  O52  1  0.44618482  0.71821686  0.58560496  1
  O  O53  1  0.94618482  0.28178314  0.91439504  1
  O  O54  1  0.55381518  0.28178314  0.41439504  1
  O  O55  1  0.05381518  0.71821686  0.08560496  1
  O  O56  1  0.56547547  0.45414171  0.80365157  1
  O  O57  1  0.06547547  0.54585829  0.69634843  1
  O  O58  1  0.43452453  0.54585829  0.19634843  1
  O  O59  1  0.93452453  0.45414171  0.30365157  1
  O  O60  1  0.41988693  0.28638203  0.67182417  1
  O  O61  1  0.91988693  0.71361797  0.82817583  1
  O  O62  1  0.58011307  0.71361797  0.32817583  1
  O  O63  1  0.08011307  0.28638203  0.17182417  1
  O  O64  1  0.48588605  0.12294667  0.11437640  1
  O  O65  1  0.98588605  0.87705333  0.38562360  1
  O  O66  1  0.51411395  0.87705333  0.88562360  1
  O  O67  1  0.01411395  0.12294667  0.61437640  1
