# generated using pymatgen
data_SiO2
_symmetry_space_group_name_H-M   'P 1'
_cell_length_a   13.66606743
_cell_length_b   13.66606742
_cell_length_c   8.96418908
_cell_angle_alpha   90.00000000
_cell_angle_beta   90.00000000
_cell_angle_gamma   120.00000005
_symmetry_Int_Tables_number   1
_chemical_formula_structural   SiO2
_chemical_formula_sum   'Si24 O48'
_cell_volume   1449.86897974
_cell_formula_units_Z   24
loop_
 _symmetry_equiv_pos_site_id
 _symmetry_equiv_pos_as_xyz
  1  'x, y, z'
loop_
 _atom_site_type_symbol
 _atom_site_label
 _atom_site_symmetry_multiplicity
 _atom_site_fract_x
 _atom_site_fract_y
 _atom_site_fract_z
 _atom_site_occupancy
  Si  Si0  1  0.33054673  0.86939909  0.07361719  1
  Si  Si1  1  0.53885236  0.86939909  0.92638281  1
  Si  Si2  1  0.13060091  0.46114764  0.42638281  1
  Si  Si3  1  0.86939909  0.53885236  0.92638281  1
  Si  Si4  1  0.46114764  0.13060091  0.07361719  1
  Si  Si5  1  0.46114764  0.33054673  0.57361719  1
  Si  Si6  1  0.13060091  0.66945327  0.92638281  1
  Si  Si7  1  0.46114764  0.33054673  0.92638281  1
  Si  Si8  1  0.66945327  0.13060091  0.57361719  1
  Si  Si9  1  0.46114764  0.13060091  0.42638281  1
  Si  Si10  1  0.33054673  0.46114764  0.57361719  1
  Si  Si11  1  0.86939909  0.33054673  0.42638281  1
  Si  Si12  1  0.53885236  0.66945327  0.42638281  1
  Si  Si13  1  0.33054673  0.46114764  0.92638281  1
  Si  Si14  1  0.33054673  0.86939909  0.42638281  1
  Si  Si15  1  0.66945327  0.13060091  0.92638281  1
  Si  Si16  1  0.53885236  0.66945327  0.07361719  1
  Si  Si17  1  0.13060091  0.66945327  0.57361719  1
  Si  Si18  1  0.13060091  0.46114764  0.07361719  1
  Si  Si19  1  0.86939909  0.33054673  0.07361719  1
  Si  Si20  1  0.66945327  0.53885236  0.42638281  1
  Si  Si21  1  0.86939909  0.53885236  0.57361719  1
  Si  Si22  1  0.53885236  0.86939909  0.57361719  1
  Si  Si23  1  0.66945327  0.53885236  0.07361719  1
  O  O24  1  0.58393245  0.79196623  0.50000000  1
  O  O25  1  0.41606755  0.20803377  0.00000000  1
  O  O26  1  0.79196623  0.20803377  0.00000000  1
  O  O27  1  0.63074762  0.63074762  0.04212871  1
  O  O28  1  0.20803377  0.79196623  0.00000000  1
  O  O29  1  0.15402079  0.67555296  0.75000000  1
  O  O30  1  0.20803377  0.41606755  0.00000000  1
  O  O31  1  0.84597921  0.52153218  0.75000000  1
  O  O32  1  0.20803377  0.79196623  0.50000000  1
  O  O33  1  0.79196623  0.58393245  0.00000000  1
  O  O34  1  0.41911256  0.83822712  0.00000000  1
  O  O35  1  0.47846782  0.15402079  0.25000000  1
  O  O36  1  0.00000000  0.36925238  0.04212871  1
  O  O37  1  0.63074762  -0.00000000  0.95787129  1
  O  O38  1  0.67555296  0.15402079  0.75000000  1
  O  O39  1  0.41911256  0.58088744  0.50000000  1
  O  O40  1  0.52153218  0.84597921  0.75000000  1
  O  O41  1  0.58393245  0.79196623  0.00000000  1
  O  O42  1  0.84597921  0.32444704  0.25000000  1
  O  O43  1  0.58088744  0.41911256  0.50000000  1
  O  O44  1  0.41606755  0.20803377  0.50000000  1
  O  O45  1  0.83822712  0.41911256  0.50000000  1
  O  O46  1  0.20803377  0.41606755  0.50000000  1
  O  O47  1  -0.00000000  0.63074762  0.54212871  1
  O  O48  1  -0.00000000  0.63074762  0.95787129  1
  O  O49  1  0.63074762  -0.00000000  0.54212871  1
  O  O50  1  0.00000000  0.36925238  0.45787129  1
  O  O51  1  0.41911256  0.83822712  0.50000000  1
  O  O52  1  0.36925238  -0.00000000  0.04212871  1
  O  O53  1  0.32444704  0.84597921  0.25000000  1
  O  O54  1  0.67555296  0.52153218  0.25000000  1
  O  O55  1  0.47846782  0.32444704  0.75000000  1
  O  O56  1  0.58088744  0.41911256  0.00000000  1
  O  O57  1  0.15402079  0.47846782  0.25000000  1
  O  O58  1  0.36925238  0.36925238  0.54212871  1
  O  O59  1  0.83822712  0.41911256  0.00000000  1
  O  O60  1  0.52153218  0.67555296  0.25000000  1
  O  O61  1  0.36925238  0.36925238  0.95787129  1
  O  O62  1  0.63074762  0.63074762  0.45787129  1
  O  O63  1  0.58088744  0.16177288  0.00000000  1
  O  O64  1  0.16177288  0.58088744  0.00000000  1
  O  O65  1  0.41911256  0.58088744  0.00000000  1
  O  O66  1  0.36925238  -0.00000000  0.45787129  1
  O  O67  1  0.79196623  0.20803377  0.50000000  1
  O  O68  1  0.79196623  0.58393245  0.50000000  1
  O  O69  1  0.32444704  0.47846782  0.75000000  1
  O  O70  1  0.58088744  0.16177288  0.50000000  1
  O  O71  1  0.16177288  0.58088744  0.50000000  1
