# generated using pymatgen
data_SiO2
_symmetry_space_group_name_H-M   'P 1'
_cell_length_a   8.93158373
_cell_length_b   9.18113042
_cell_length_c   9.18112997
_cell_angle_alpha   110.86644491
_cell_angle_beta   98.71155929
_cell_angle_gamma   98.71155498
_symmetry_Int_Tables_number   1
_chemical_formula_structural   SiO2
_chemical_formula_sum   'Si12 O24'
_cell_volume   677.96285192
_cell_formula_units_Z   12
loop_
 _symmetry_equiv_pos_site_id
 _symmetry_equiv_pos_as_xyz
  1  'x, y, z'
loop_
 _atom_site_type_symbol
 _atom_site_label
 _atom_site_symmetry_multiplicity
 _atom_site_fract_x
 _atom_site_fract_y
 _atom_site_fract_z
 _atom_site_occupancy
  Si  Si0  1  0.30804903  0.20154102  -0.00171812  1
  Si  Si1  1  0.30804903  -0.00171812  0.20154102  1
  Si  Si2  1  0.32998214  0.90886486  0.70318465  1
  Si  Si3  1  0.10369168  0.40304567  0.88933735  1
  Si  Si4  1  0.66917667  0.09830695  0.30106596  1
  Si  Si5  1  0.89352996  0.59537607  0.10564452  1
  Si  Si6  1  0.68725284  0.80160501  0.00621030  1
  Si  Si7  1  0.10369168  0.88933735  0.40304567  1
  Si  Si8  1  0.68725284  0.00621030  0.80160501  1
  Si  Si9  1  0.32998214  0.70318465  0.90886486  1
  Si  Si10  1  0.89352996  0.10564452  0.59537607  1
  Si  Si11  1  0.66917667  0.30106596  0.09830695  1
  O  O12  1  0.80540274  0.68807556  0.01223212  1
  O  O13  1  0.70827496  0.24498592  0.24498592  1
  O  O14  1  0.99129913  0.99145060  0.49362893  1
  O  O15  1  0.30099832  0.76597322  0.76597322  1
  O  O16  1  0.28327519  0.06504256  0.82133360  1
  O  O17  1  0.00549408  0.27097338  0.72034265  1
  O  O18  1  0.99129913  0.49362893  0.99145060  1
  O  O19  1  0.26416030  0.11999996  0.11999996  1
  O  O20  1  0.71375158  0.18113436  0.94178604  1
  O  O21  1  0.80540274  0.01223212  0.68807556  1
  O  O22  1  0.48651303  0.29997075  0.05984223  1
  O  O23  1  0.28327519  0.82133360  0.06504256  1
  O  O24  1  0.71375158  0.94178604  0.18113436  1
  O  O25  1  0.19582537  0.99204012  0.32060389  1
  O  O26  1  0.51073676  0.95215007  0.69806722  1
  O  O27  1  0.51073676  0.69806722  0.95215007  1
  O  O28  1  0.76816908  0.14676571  0.47859876  1
  O  O29  1  0.00549408  0.72034265  0.27097338  1
  O  O30  1  0.72101007  0.87839395  0.87839395  1
  O  O31  1  0.19582537  0.32060389  0.99204012  1
  O  O32  1  0.76816908  0.47859876  0.14676571  1
  O  O33  1  0.22529289  0.85284043  0.52697072  1
  O  O34  1  0.22529289  0.52697072  0.85284043  1
  O  O35  1  0.48651303  0.05984223  0.29997075  1
