# generated using pymatgen
data_SiO2
_symmetry_space_group_name_H-M   'P 1'
_cell_length_a   7.44307693
_cell_length_b   14.14741500
_cell_length_c   18.72567969
_cell_angle_alpha   90.00000000
_cell_angle_beta   90.00000000
_cell_angle_gamma   90.00000000
_symmetry_Int_Tables_number   1
_chemical_formula_structural   SiO2
_chemical_formula_sum   'Si36 O72'
_cell_volume   1971.81965546
_cell_formula_units_Z   36
loop_
 _symmetry_equiv_pos_site_id
 _symmetry_equiv_pos_as_xyz
  1  'x, y, z'
loop_
 _atom_site_type_symbol
 _atom_site_label
 _atom_site_symmetry_multiplicity
 _atom_site_fract_x
 _atom_site_fract_y
 _atom_site_fract_z
 _atom_site_occupancy
  Si  Si0  1  0.22219609  0.69749964  0.66583897  1
  Si  Si1  1  0.72219609  0.80250036  0.16583897  1
  Si  Si2  1  0.20875304  0.99973883  0.77385581  1
  Si  Si3  1  -0.00000000  0.50000000  0.84756173  1
  Si  Si4  1  0.51157016  0.79967726  0.58295240  1
  Si  Si5  1  -0.00000000  0.50000000  0.15243827  1
  Si  Si6  1  0.98842984  0.29967726  0.08295240  1
  Si  Si7  1  0.51157016  0.79967726  0.41704760  1
  Si  Si8  1  0.18966766  0.29167490  0.31669335  1
  Si  Si9  1  0.98842984  0.29967726  0.91704760  1
  Si  Si10  1  0.81033234  0.70832510  0.31669335  1
  Si  Si11  1  0.77780391  0.30250036  0.66583897  1
  Si  Si12  1  0.27780391  0.19749964  0.16583897  1
  Si  Si13  1  0.31033234  0.79167490  0.81669335  1
  Si  Si14  1  0.68966766  0.20832510  0.18330665  1
  Si  Si15  1  0.01157016  0.70032274  0.08295240  1
  Si  Si16  1  0.31033234  0.79167490  0.18330665  1
  Si  Si17  1  0.48842984  0.20032274  0.58295240  1
  Si  Si18  1  0.70875304  0.50026117  0.27385581  1
  Si  Si19  1  0.68966766  0.20832510  0.81669335  1
  Si  Si20  1  0.29124696  0.49973883  0.27385581  1
  Si  Si21  1  0.48842984  0.20032274  0.41704760  1
  Si  Si22  1  0.29124696  0.49973883  0.72614419  1
  Si  Si23  1  0.79124696  0.00026117  0.77385581  1
  Si  Si24  1  0.22219609  0.69749964  0.33416103  1
  Si  Si25  1  0.50000000  0.00000000  0.34756173  1
  Si  Si26  1  0.18966766  0.29167490  0.68330665  1
  Si  Si27  1  0.27780391  0.19749964  0.83416103  1
  Si  Si28  1  0.81033234  0.70832510  0.68330665  1
  Si  Si29  1  0.70875304  0.50026117  0.72614419  1
  Si  Si30  1  0.20875304  0.99973883  0.22614419  1
  Si  Si31  1  0.72219609  0.80250036  0.83416103  1
  Si  Si32  1  0.01157016  0.70032274  0.91704760  1
  Si  Si33  1  0.79124696  0.00026117  0.22614419  1
  Si  Si34  1  0.77780391  0.30250036  0.33416103  1
  Si  Si35  1  0.50000000  0.00000000  0.65243827  1
  O  O36  1  0.83321194  0.76188608  0.90113358  1
  O  O37  1  0.75969700  0.59773316  0.68686840  1
  O  O38  1  0.17738072  0.73841574  0.87029691  1
  O  O39  1  0.79761638  0.75323545  0.76228117  1
  O  O40  1  0.82261928  0.26158426  0.87029691  1
  O  O41  1  0.98725484  0.27893036  0.65470232  1
  O  O42  1  0.43893725  0.20952436  0.50000000  1
  O  O43  1  0.70238362  0.25323545  0.26228117  1
  O  O44  1  0.29761638  0.74676455  0.73771883  1
  O  O45  1  0.51274516  0.77893036  0.84529768  1
  O  O46  1  0.83321194  0.76188608  0.09886642  1
  O  O47  1  0.47476537  0.90880169  0.39748035  1
  O  O48  1  0.75008341  0.91537965  0.17109955  1
  O  O49  1  0.79761638  0.75323545  0.23771883  1
  O  O50  1  0.66678806  0.26188608  0.40113358  1
  O  O51  1  0.20238362  0.24676455  0.76228117  1
  O  O52  1  0.24991659  0.08462035  0.82890045  1
  O  O53  1  0.29761638  0.74676455  0.26228117  1
  O  O54  1  0.24030300  0.40226684  0.31313160  1
  O  O55  1  0.50000000  0.50000000  0.25143633  1
  O  O56  1  0.67738072  0.76158426  0.37029691  1
  O  O57  1  0.74991659  0.41537965  0.67109955  1
  O  O58  1  0.17529182  0.51395417  0.20203105  1
  O  O59  1  -0.00000000  0.00000000  0.24856367  1
  O  O60  1  0.20238362  0.24676455  0.23771883  1
  O  O61  1  0.97476537  0.59119831  0.89748035  1
  O  O62  1  0.48725484  0.22106964  0.84529768  1
  O  O63  1  0.74991659  0.41537965  0.32890045  1
  O  O64  1  0.25008341  0.58462035  0.67109955  1
  O  O65  1  0.17738072  0.73841574  0.12970309  1
  O  O66  1  0.70238362  0.25323545  0.73771883  1
  O  O67  1  0.02523463  0.40880169  0.10251965  1
  O  O68  1  0.33321194  0.73811392  0.59886642  1
  O  O69  1  0.32470818  0.01395417  0.29796895  1
  O  O70  1  0.24030300  0.40226684  0.68686840  1
  O  O71  1  0.98725484  0.27893036  0.34529768  1
  O  O72  1  0.01274516  0.72106964  0.34529768  1
  O  O73  1  0.25969700  0.90226684  0.18686840  1
  O  O74  1  0.82261928  0.26158426  0.12970309  1
  O  O75  1  0.67738072  0.76158426  0.62970309  1
  O  O76  1  0.50000000  0.50000000  0.74856367  1
  O  O77  1  0.93893725  0.29047564  -0.00000000  1
  O  O78  1  0.16678806  0.23811392  0.09886642  1
  O  O79  1  0.06106275  0.70952436  -0.00000000  1
  O  O80  1  0.67529182  0.98604583  0.70203105  1
  O  O81  1  0.32261928  0.23841574  0.62970309  1
  O  O82  1  0.01274516  0.72106964  0.65470232  1
  O  O83  1  0.51274516  0.77893036  0.15470232  1
  O  O84  1  0.75008341  0.91537965  0.82890045  1
  O  O85  1  0.33321194  0.73811392  0.40113358  1
  O  O86  1  0.82470818  0.48604583  0.20203105  1
  O  O87  1  0.25969700  0.90226684  0.81313160  1
  O  O88  1  0.47476537  0.90880169  0.60251965  1
  O  O89  1  0.67529182  0.98604583  0.29796895  1
  O  O90  1  0.32261928  0.23841574  0.37029691  1
  O  O91  1  0.75969700  0.59773316  0.31313160  1
  O  O92  1  0.56106275  0.79047564  0.50000000  1
  O  O93  1  0.25008341  0.58462035  0.32890045  1
  O  O94  1  0.97476537  0.59119831  0.10251965  1
  O  O95  1  0.32470818  0.01395417  0.70203105  1
  O  O96  1  0.24991659  0.08462035  0.17109955  1
  O  O97  1  0.52523463  0.09119831  0.39748035  1
  O  O98  1  0.16678806  0.23811392  0.90113358  1
  O  O99  1  0.48725484  0.22106964  0.15470232  1
  O  O100  1  0.74030300  0.09773316  0.18686840  1
  O  O101  1  0.74030300  0.09773316  0.81313160  1
  O  O102  1  -0.00000000  0.00000000  0.75143633  1
  O  O103  1  0.52523463  0.09119831  0.60251965  1
  O  O104  1  0.82470818  0.48604583  0.79796895  1
  O  O105  1  0.02523463  0.40880169  0.89748035  1
  O  O106  1  0.66678806  0.26188608  0.59886642  1
  O  O107  1  0.17529182  0.51395417  0.79796895  1
