# generated using pymatgen
data_SiO2
_symmetry_space_group_name_H-M   'P 1'
_cell_length_a   7.53229033
_cell_length_b   11.82303978
_cell_length_c   11.82303831
_cell_angle_alpha   105.52135400
_cell_angle_beta   90.00000000
_cell_angle_gamma   90.00000000
_symmetry_Int_Tables_number   1
_chemical_formula_structural   SiO2
_chemical_formula_sum   'Si18 O36'
_cell_volume   1014.49729936
_cell_formula_units_Z   18
loop_
 _symmetry_equiv_pos_site_id
 _symmetry_equiv_pos_as_xyz
  1  'x, y, z'
loop_
 _atom_site_type_symbol
 _atom_site_label
 _atom_site_symmetry_multiplicity
 _atom_site_fract_x
 _atom_site_fract_y
 _atom_site_fract_z
 _atom_site_occupancy
  Si  Si0  1  0.70640505  0.11654307  0.28118672  1
  Si  Si1  1  0.29359495  0.11654307  0.28118672  1
  Si  Si2  1  0.70542809  0.85082034  0.14917966  1
  Si  Si3  1  0.70640505  0.28118672  0.11654307  1
  Si  Si4  1  0.00000000  0.26884831  0.73115169  1
  Si  Si5  1  0.00000000  0.73115169  0.26884831  1
  Si  Si6  1  0.29359495  0.28118672  0.11654307  1
  Si  Si7  1  0.00000000  0.52913184  0.87484671  1
  Si  Si8  1  0.70640505  0.71881328  0.88345693  1
  Si  Si9  1  0.29457191  0.14917966  0.85082034  1
  Si  Si10  1  0.70640505  0.88345693  0.71881328  1
  Si  Si11  1  0.00000000  0.47086816  0.12515329  1
  Si  Si12  1  0.70542809  0.14917966  0.85082034  1
  Si  Si13  1  0.29359495  0.88345693  0.71881328  1
  Si  Si14  1  0.00000000  0.87484671  0.52913184  1
  Si  Si15  1  0.00000000  0.12515329  0.47086816  1
  Si  Si16  1  0.29359495  0.71881328  0.88345693  1
  Si  Si17  1  0.29457191  0.85082034  0.14917966  1
  O  O18  1  0.74769542  0.01067462  0.80727075  1
  O  O19  1  0.75399111  0.21590054  0.21590054  1
  O  O20  1  0.17565092  0.86308480  0.60235358  1
  O  O21  1  0.82434908  0.13691520  0.39764642  1
  O  O22  1  0.74769542  0.98932538  0.19272925  1
  O  O23  1  0.50000000  0.87532068  0.68133642  1
  O  O24  1  0.25230458  0.98932538  0.19272925  1
  O  O25  1  0.17565092  0.39764642  0.13691520  1
  O  O26  1  0.82506878  0.21962043  0.78037957  1
  O  O27  1  0.17565092  0.13691520  0.39764642  1
  O  O28  1  0.50000000  0.31866358  0.12467932  1
  O  O29  1  0.50000000  0.82654876  0.17345124  1
  O  O30  1  0.24600889  0.21590054  0.21590054  1
  O  O31  1  0.50000000  0.12467932  0.31866358  1
  O  O32  1  0.25230458  0.01067462  0.80727075  1
  O  O33  1  0.74769542  0.80727075  0.01067462  1
  O  O34  1  0.00000000  0.77116292  0.40960754  1
  O  O35  1  0.25230458  0.19272925  0.98932538  1
  O  O36  1  0.50000000  0.17345124  0.82654876  1
  O  O37  1  0.17493122  0.78037957  0.21962043  1
  O  O38  1  0.00000000  0.50000000  -0.00000000  1
  O  O39  1  0.50000000  0.68133642  0.87532068  1
  O  O40  1  0.82434908  0.39764642  0.13691520  1
  O  O41  1  0.00000000  0.40960754  0.77116292  1
  O  O42  1  0.17493122  0.21962043  0.78037957  1
  O  O43  1  0.82506878  0.78037957  0.21962043  1
  O  O44  1  0.00000000  0.59039246  0.22883708  1
  O  O45  1  0.24600889  0.78409946  0.78409946  1
  O  O46  1  0.82434908  0.60235358  0.86308480  1
  O  O47  1  0.75399111  0.78409946  0.78409946  1
  O  O48  1  0.00000000  -0.00000000  0.50000000  1
  O  O49  1  0.25230458  0.80727075  0.01067462  1
  O  O50  1  0.00000000  0.22883708  0.59039246  1
  O  O51  1  0.82434908  0.86308480  0.60235358  1
  O  O52  1  0.17565092  0.60235358  0.86308480  1
  O  O53  1  0.74769542  0.19272925  0.98932538  1
