# generated using pymatgen
data_SiO2
_symmetry_space_group_name_H-M   'P 1'
_cell_length_a   9.28407205
_cell_length_b   9.28407205
_cell_length_c   18.43126129
_cell_angle_alpha   90.00000000
_cell_angle_beta   90.00000000
_cell_angle_gamma   94.53472724
_symmetry_Int_Tables_number   1
_chemical_formula_structural   SiO2
_chemical_formula_sum   'Si24 O48'
_cell_volume   1583.69086238
_cell_formula_units_Z   24
loop_
 _symmetry_equiv_pos_site_id
 _symmetry_equiv_pos_as_xyz
  1  'x, y, z'
loop_
 _atom_site_type_symbol
 _atom_site_label
 _atom_site_symmetry_multiplicity
 _atom_site_fract_x
 _atom_site_fract_y
 _atom_site_fract_z
 _atom_site_occupancy
  Si  Si0  1  0.92214919  0.14978617  0.16614523  1
  Si  Si1  1  0.85021383  0.07785081  0.83385477  1
  Si  Si2  1  0.14978617  0.92214919  0.33385477  1
  Si  Si3  1  0.07785081  0.85021383  0.66614523  1
  Si  Si4  1  0.07785081  0.85021383  0.83385477  1
  Si  Si5  1  0.14978617  0.92214919  0.16614523  1
  Si  Si6  1  0.85021383  0.07785081  0.66614523  1
  Si  Si7  1  0.92214919  0.14978617  0.33385477  1
  Si  Si8  1  0.65692270  0.88478020  0.93835352  1
  Si  Si9  1  0.11521980  0.34307730  0.06164648  1
  Si  Si10  1  0.88478020  0.65692270  0.56164648  1
  Si  Si11  1  0.34307730  0.11521980  0.43835352  1
  Si  Si12  1  0.34307730  0.11521980  0.06164648  1
  Si  Si13  1  0.88478020  0.65692270  0.93835352  1
  Si  Si14  1  0.11521980  0.34307730  0.43835352  1
  Si  Si15  1  0.65692270  0.88478020  0.56164648  1
  Si  Si16  1  0.13269226  0.67477985  0.05267807  1
  Si  Si17  1  0.32522015  0.86730774  0.94732193  1
  Si  Si18  1  0.67477985  0.13269226  0.44732193  1
  Si  Si19  1  0.86730774  0.32522015  0.55267807  1
  Si  Si20  1  0.86730774  0.32522015  0.94732193  1
  Si  Si21  1  0.67477985  0.13269226  0.05267807  1
  Si  Si22  1  0.32522015  0.86730774  0.55267807  1
  Si  Si23  1  0.13269226  0.67477985  0.44732193  1
  O  O24  1  0.00192678  0.00192678  0.15880212  1
  O  O25  1  -0.00192678  -0.00192678  0.84119788  1
  O  O26  1  0.00192678  0.00192678  0.34119788  1
  O  O27  1  -0.00192678  -0.00192678  0.65880212  1
  O  O28  1  0.89596655  0.18664954  0.25000000  1
  O  O29  1  0.81335046  0.10403345  0.75000000  1
  O  O30  1  0.18664954  0.89596655  0.25000000  1
  O  O31  1  0.10403345  0.81335046  0.75000000  1
  O  O32  1  0.02137003  0.28159320  0.13025259  1
  O  O33  1  0.71840680  0.97862997  0.86974741  1
  O  O34  1  0.28159320  0.02137003  0.36974741  1
  O  O35  1  0.97862997  0.71840680  0.63025259  1
  O  O36  1  0.97862997  0.71840680  0.86974741  1
  O  O37  1  0.28159320  0.02137003  0.13025259  1
  O  O38  1  0.71840680  0.97862997  0.63025259  1
  O  O39  1  0.02137003  0.28159320  0.36974741  1
  O  O40  1  0.76862699  0.12933117  0.12577947  1
  O  O41  1  0.87066883  0.23137301  0.87422053  1
  O  O42  1  0.12933117  0.76862699  0.37422053  1
  O  O43  1  0.23137301  0.87066883  0.62577947  1
  O  O44  1  0.23137301  0.87066883  0.87422053  1
  O  O45  1  0.12933117  0.76862699  0.12577947  1
  O  O46  1  0.87066883  0.23137301  0.62577947  1
  O  O47  1  0.76862699  0.12933117  0.37422053  1
  O  O48  1  0.67917424  0.97907040  0.01179478  1
  O  O49  1  0.02092960  0.32082576  0.98820522  1
  O  O50  1  0.97907040  0.67917424  0.48820522  1
  O  O51  1  0.32082576  0.02092960  0.51179478  1
  O  O52  1  0.32082576  0.02092960  0.98820522  1
  O  O53  1  0.97907040  0.67917424  0.01179478  1
  O  O54  1  0.02092960  0.32082576  0.51179478  1
  O  O55  1  0.67917424  0.97907040  0.48820522  1
  O  O56  1  0.74072490  0.74072490  0.94629068  1
  O  O57  1  0.25927510  0.25927510  0.05370932  1
  O  O58  1  0.74072490  0.74072490  0.55370932  1
  O  O59  1  0.25927510  0.25927510  0.44629068  1
  O  O60  1  0.48824644  0.83903891  0.92576899  1
  O  O61  1  0.16096109  0.51175356  0.07423101  1
  O  O62  1  0.83903891  0.48824644  0.57423101  1
  O  O63  1  0.51175356  0.16096109  0.42576899  1
  O  O64  1  0.51175356  0.16096109  0.07423101  1
  O  O65  1  0.83903891  0.48824644  0.92576899  1
  O  O66  1  0.16096109  0.51175356  0.42576899  1
  O  O67  1  0.48824644  0.83903891  0.57423101  1
  O  O68  1  0.26108346  0.73891654  0.00000000  1
  O  O69  1  0.73891654  0.26108346  0.50000000  1
  O  O70  1  0.73891654  0.26108346  0.00000000  1
  O  O71  1  0.26108346  0.73891654  0.50000000  1
