# generated using pymatgen
data_SiO2
_symmetry_space_group_name_H-M   'P 1'
_cell_length_a   14.97341581
_cell_length_b   14.97341581
_cell_length_c   14.97341581
_cell_angle_alpha   159.81116260
_cell_angle_beta   124.28965493
_cell_angle_gamma   59.87175552
_symmetry_Int_Tables_number   1
_chemical_formula_structural   SiO2
_chemical_formula_sum   'Si16 O32'
_cell_volume   952.97502879
_cell_formula_units_Z   16
loop_
 _symmetry_equiv_pos_site_id
 _symmetry_equiv_pos_as_xyz
  1  'x, y, z'
loop_
 _atom_site_type_symbol
 _atom_site_label
 _atom_site_symmetry_multiplicity
 _atom_site_fract_x
 _atom_site_fract_y
 _atom_site_fract_z
 _atom_site_occupancy
  Si  Si0  1  0.92338041  0.78391920  0.13946121  1
  Si  Si1  1  0.85554201  0.21608080  0.63946121  1
  Si  Si2  1  0.07661959  0.21608080  0.86053879  1
  Si  Si3  1  0.14445799  0.78391920  0.36053879  1
  Si  Si4  1  0.90154013  0.44121878  0.46032135  1
  Si  Si5  1  0.51910257  0.55878122  0.96032135  1
  Si  Si6  1  0.09845987  0.55878122  0.53967865  1
  Si  Si7  1  0.48089743  0.44121878  0.03967865  1
  Si  Si8  1  0.94760369  0.89384007  0.05376363  1
  Si  Si9  1  0.65992356  0.10615993  0.55376363  1
  Si  Si10  1  0.05239631  0.10615993  0.94623637  1
  Si  Si11  1  0.34007644  0.89384007  0.44623637  1
  Si  Si12  1  0.27579008  0.52579008  0.75000000  1
  Si  Si13  1  0.72420992  0.47420992  0.25000000  1
  Si  Si14  1  0.20542011  0.95542011  0.25000000  1
  Si  Si15  1  0.79457989  0.04457989  0.75000000  1
  O  O16  1  0.05311474  0.80311474  0.25000000  1
  O  O17  1  0.94688526  0.19688526  0.75000000  1
  O  O18  1  0.07711628  0.91977720  0.15733907  1
  O  O19  1  0.73756087  0.08022280  0.65733907  1
  O  O20  1  0.92288372  0.08022280  0.84266093  1
  O  O21  1  0.26243913  0.91977720  0.34266093  1
  O  O22  1  0.24038320  0.24070128  0.50031708  1
  O  O23  1  0.75961680  0.75929872  0.49968292  1
  O  O24  1  0.75961680  0.25993389  0.00031708  1
  O  O25  1  0.24038320  0.74006611  0.99968292  1
  O  O26  1  0.86887688  0.50000000  0.86887688  1
  O  O27  1  0.13112312  0.00000000  0.63112312  1
  O  O28  1  0.13112312  0.50000000  0.13112312  1
  O  O29  1  0.86887688  -0.00000000  0.36887688  1
  O  O30  1  0.90019197  0.83234108  0.06785089  1
  O  O31  1  0.73550881  0.16765892  0.56785089  1
  O  O32  1  0.09980803  0.16765892  0.93214911  1
  O  O33  1  0.26449119  0.83234108  0.43214911  1
  O  O34  1  -0.00000000  0.50000000  0.50000000  1
  O  O35  1  0.50000000  0.50000000  0.00000000  1
  O  O36  1  0.21549610  0.56055435  0.65493975  1
  O  O37  1  0.59438540  0.43944565  0.15493975  1
  O  O38  1  0.78450390  0.43944565  0.34506025  1
  O  O39  1  0.40561460  0.56055435  0.84506025  1
  O  O40  1  0.90797507  0.16143696  0.24644157  1
  O  O41  1  0.58500562  0.83856304  0.24653811  1
  O  O42  1  0.09202493  0.33846750  0.25346189  1
  O  O43  1  0.41499438  0.66153250  0.25355843  1
  O  O44  1  0.09202493  0.83856304  0.75355843  1
  O  O45  1  0.41499438  0.16143696  0.75346189  1
  O  O46  1  0.90797507  0.66153250  0.74653811  1
  O  O47  1  0.58500562  0.33846750  0.74644157  1
