# generated using pymatgen
data_SiO2
_symmetry_space_group_name_H-M   'P 1'
_cell_length_a   13.75433115
_cell_length_b   13.75433115
_cell_length_c   8.35908103
_cell_angle_alpha   90.00000000
_cell_angle_beta   90.00000000
_cell_angle_gamma   138.56536742
_symmetry_Int_Tables_number   1
_chemical_formula_structural   SiO2
_chemical_formula_sum   'Si20 O40'
_cell_volume   1046.50517674
_cell_formula_units_Z   20
loop_
 _symmetry_equiv_pos_site_id
 _symmetry_equiv_pos_as_xyz
  1  'x, y, z'
loop_
 _atom_site_type_symbol
 _atom_site_label
 _atom_site_symmetry_multiplicity
 _atom_site_fract_x
 _atom_site_fract_y
 _atom_site_fract_z
 _atom_site_occupancy
  Si  Si0  1  0.84744203  0.56421458  0.06173037  1
  Si  Si1  1  0.56421458  0.84744203  0.93826963  1
  Si  Si2  1  0.43578542  0.15255797  0.43826963  1
  Si  Si3  1  0.15255797  0.43578542  0.56173037  1
  Si  Si4  1  0.15255797  0.43578542  0.93826963  1
  Si  Si5  1  0.43578542  0.15255797  0.06173037  1
  Si  Si6  1  0.56421458  0.84744203  0.56173037  1
  Si  Si7  1  0.84744203  0.56421458  0.43826963  1
  Si  Si8  1  0.44092022  0.55907978  0.05834264  1
  Si  Si9  1  0.55907978  0.44092022  0.94165736  1
  Si  Si10  1  0.44092022  0.55907978  0.44165736  1
  Si  Si11  1  0.55907978  0.44092022  0.55834264  1
  Si  Si12  1  0.27631685  0.72368315  0.06658054  1
  Si  Si13  1  0.72368315  0.27631685  0.93341946  1
  Si  Si14  1  0.27631685  0.72368315  0.43341946  1
  Si  Si15  1  0.72368315  0.27631685  0.56658054  1
  Si  Si16  1  0.83622356  0.16377644  0.06366435  1
  Si  Si17  1  0.16377644  0.83622356  0.93633565  1
  Si  Si18  1  0.83622356  0.16377644  0.43633565  1
  Si  Si19  1  0.16377644  0.83622356  0.56366435  1
  O  O20  1  0.83319352  0.53130487  0.25000000  1
  O  O21  1  0.53130487  0.83319352  0.75000000  1
  O  O22  1  0.46869513  0.16680648  0.25000000  1
  O  O23  1  0.16680648  0.46869513  0.75000000  1
  O  O24  1  0.00637188  0.72749688  0.02234267  1
  O  O25  1  0.72749688  0.00637188  0.97765733  1
  O  O26  1  0.27250312  0.99362812  0.47765733  1
  O  O27  1  0.99362812  0.27250312  0.52234267  1
  O  O28  1  0.99362812  0.27250312  0.97765733  1
  O  O29  1  0.27250312  0.99362812  0.02234267  1
  O  O30  1  0.72749688  0.00637188  0.52234267  1
  O  O31  1  0.00637188  0.72749688  0.47765733  1
  O  O32  1  0.82507746  0.44669024  0.96504558  1
  O  O33  1  0.44669024  0.82507746  0.03495442  1
  O  O34  1  0.55330976  0.17492254  0.53495442  1
  O  O35  1  0.17492254  0.55330976  0.46504558  1
  O  O36  1  0.17492254  0.55330976  0.03495442  1
  O  O37  1  0.55330976  0.17492254  0.96504558  1
  O  O38  1  0.44669024  0.82507746  0.46504558  1
  O  O39  1  0.82507746  0.44669024  0.53495442  1
  O  O40  1  0.72349776  0.54865704  0.00946276  1
  O  O41  1  0.54865704  0.72349776  0.99053724  1
  O  O42  1  0.45134296  0.27650224  0.49053724  1
  O  O43  1  0.27650224  0.45134296  0.50946276  1
  O  O44  1  0.27650224  0.45134296  0.99053724  1
  O  O45  1  0.45134296  0.27650224  0.00946276  1
  O  O46  1  0.54865704  0.72349776  0.50946276  1
  O  O47  1  0.72349776  0.54865704  0.49053724  1
  O  O48  1  0.50000000  0.50000000  0.00000000  1
  O  O49  1  0.50000000  0.50000000  0.50000000  1
  O  O50  1  0.43806191  0.56193809  0.25000000  1
  O  O51  1  0.56193809  0.43806191  0.75000000  1
  O  O52  1  0.25672241  0.74327759  0.25000000  1
  O  O53  1  0.74327759  0.25672241  0.75000000  1
  O  O54  1  0.22632579  0.77367421  0.95163187  1
  O  O55  1  0.77367421  0.22632579  0.04836813  1
  O  O56  1  0.22632579  0.77367421  0.54836813  1
  O  O57  1  0.77367421  0.22632579  0.45163187  1
  O  O58  1  0.85156055  0.14843945  0.25000000  1
  O  O59  1  0.14843945  0.85156055  0.75000000  1
