# generated using pymatgen
data_SiO2
_symmetry_space_group_name_H-M   'P 1'
_cell_length_a   8.13339803
_cell_length_b   9.15679409
_cell_length_c   17.34183576
_cell_angle_alpha   90.00000000
_cell_angle_beta   90.00000000
_cell_angle_gamma   90.00000000
_symmetry_Int_Tables_number   1
_chemical_formula_structural   SiO2
_chemical_formula_sum   'Si24 O48'
_cell_volume   1291.54797635
_cell_formula_units_Z   24
loop_
 _symmetry_equiv_pos_site_id
 _symmetry_equiv_pos_as_xyz
  1  'x, y, z'
loop_
 _atom_site_type_symbol
 _atom_site_label
 _atom_site_symmetry_multiplicity
 _atom_site_fract_x
 _atom_site_fract_y
 _atom_site_fract_z
 _atom_site_occupancy
  Si  Si0  1  0.63565830  0.13124890  0.06810298  1
  Si  Si1  1  0.63565830  0.86875110  0.43189702  1
  Si  Si2  1  0.86434170  0.13124890  0.93189702  1
  Si  Si3  1  0.36434170  0.36875110  0.06810298  1
  Si  Si4  1  0.13565830  0.63124890  0.56810298  1
  Si  Si5  1  0.13565830  0.36875110  0.93189702  1
  Si  Si6  1  0.36434170  0.63124890  0.43189702  1
  Si  Si7  1  0.86434170  0.86875110  0.56810298  1
  Si  Si8  1  0.06379554  0.91226331  0.02925453  1
  Si  Si9  1  0.06379554  0.08773669  0.47074547  1
  Si  Si10  1  0.43620446  0.91226331  0.97074547  1
  Si  Si11  1  0.93620446  0.58773669  0.02925453  1
  Si  Si12  1  0.56379554  0.41226331  0.52925453  1
  Si  Si13  1  0.56379554  0.58773669  0.97074547  1
  Si  Si14  1  0.93620446  0.41226331  0.47074547  1
  Si  Si15  1  0.43620446  0.08773669  0.52925453  1
  Si  Si16  1  0.93641321  0.91317477  0.32957588  1
  Si  Si17  1  0.93641321  0.08682523  0.17042412  1
  Si  Si18  1  0.56358679  0.91317477  0.67042412  1
  Si  Si19  1  0.06358679  0.58682523  0.32957588  1
  Si  Si20  1  0.43641321  0.41317477  0.82957588  1
  Si  Si21  1  0.43641321  0.58682523  0.67042412  1
  Si  Si22  1  0.06358679  0.41317477  0.17042412  1
  Si  Si23  1  0.56358679  0.08682523  0.82957588  1
  O  O24  1  0.75000000  0.20013332  0.00000000  1
  O  O25  1  0.75000000  0.79986668  0.50000000  1
  O  O26  1  0.25000000  0.29986668  0.00000000  1
  O  O27  1  0.25000000  0.70013332  0.50000000  1
  O  O28  1  0.54998282  0.98346849  0.03728899  1
  O  O29  1  0.54998282  0.01653151  0.46271101  1
  O  O30  1  0.95001718  0.98346849  0.96271101  1
  O  O31  1  0.45001718  0.51653151  0.03728899  1
  O  O32  1  0.04998282  0.48346849  0.53728899  1
  O  O33  1  0.04998282  0.51653151  0.96271101  1
  O  O34  1  0.45001718  0.48346849  0.46271101  1
  O  O35  1  0.95001718  0.01653151  0.53728899  1
  O  O36  1  0.74758729  0.08992223  0.14131626  1
  O  O37  1  0.74758729  0.91007777  0.35868374  1
  O  O38  1  0.75241271  0.08992223  0.85868374  1
  O  O39  1  0.25241271  0.41007777  0.14131626  1
  O  O40  1  0.24758729  0.58992223  0.64131626  1
  O  O41  1  0.24758729  0.41007777  0.85868374  1
  O  O42  1  0.25241271  0.58992223  0.35868374  1
  O  O43  1  0.75241271  0.91007777  0.64131626  1
  O  O44  1  0.50000000  0.25000000  0.09302582  1
  O  O45  1  0.50000000  0.75000000  0.40697418  1
  O  O46  1  -0.00000000  0.25000000  0.90697418  1
  O  O47  1  -0.00000000  0.75000000  0.59302582  1
  O  O48  1  0.05253235  0.00967475  0.10667566  1
  O  O49  1  0.05253235  0.99032525  0.39332434  1
  O  O50  1  0.44746765  0.00967475  0.89332434  1
  O  O51  1  0.94746765  0.49032525  0.10667566  1
  O  O52  1  0.55253235  0.50967475  0.60667566  1
  O  O53  1  0.55253235  0.49032525  0.89332434  1
  O  O54  1  0.94746765  0.50967475  0.39332434  1
  O  O55  1  0.44746765  0.99032525  0.60667566  1
  O  O56  1  0.25000000  0.90629741  0.00000000  1
  O  O57  1  0.25000000  0.09370259  0.50000000  1
  O  O58  1  0.75000000  0.59370259  0.00000000  1
  O  O59  1  0.75000000  0.40629741  0.50000000  1
  O  O60  1  -0.00000000  0.75000000  0.04766348  1
  O  O61  1  -0.00000000  0.25000000  0.45233652  1
  O  O62  1  0.50000000  0.75000000  0.95233652  1
  O  O63  1  0.50000000  0.25000000  0.54766348  1
  O  O64  1  -0.00000000  0.75000000  0.31521222  1
  O  O65  1  -0.00000000  0.25000000  0.18478778  1
  O  O66  1  0.50000000  0.75000000  0.68478778  1
  O  O67  1  0.50000000  0.25000000  0.81521222  1
  O  O68  1  0.94587525  -0.00000000  0.25000000  1
  O  O69  1  0.55412475  -0.00000000  0.75000000  1
  O  O70  1  0.05412475  0.50000000  0.25000000  1
  O  O71  1  0.44587525  0.50000000  0.75000000  1
