# generated using pymatgen
data_SiO2
_symmetry_space_group_name_H-M   'P 1'
_cell_length_a   8.90819885
_cell_length_b   9.20297107
_cell_length_c   16.12354769
_cell_angle_alpha   90.00000000
_cell_angle_beta   90.00000000
_cell_angle_gamma   90.00000000
_symmetry_Int_Tables_number   1
_chemical_formula_structural   SiO2
_chemical_formula_sum   'Si24 O48'
_cell_volume   1321.83901475
_cell_formula_units_Z   24
loop_
 _symmetry_equiv_pos_site_id
 _symmetry_equiv_pos_as_xyz
  1  'x, y, z'
loop_
 _atom_site_type_symbol
 _atom_site_label
 _atom_site_symmetry_multiplicity
 _atom_site_fract_x
 _atom_site_fract_y
 _atom_site_fract_z
 _atom_site_occupancy
  Si  Si0  1  0.15261563  0.85937580  0.39041462  1
  Si  Si1  1  0.84738437  0.14062420  0.89041462  1
  Si  Si2  1  0.34738437  0.85937580  0.89041462  1
  Si  Si3  1  0.65261563  0.14062420  0.39041462  1
  Si  Si4  1  0.04222738  0.64652543  0.07265598  1
  Si  Si5  1  0.95777262  0.35347457  0.57265598  1
  Si  Si6  1  0.45777262  0.64652543  0.57265598  1
  Si  Si7  1  0.54222738  0.35347457  0.07265598  1
  Si  Si8  1  0.19647712  0.41890960  0.34082161  1
  Si  Si9  1  0.80352288  0.58109040  0.84082161  1
  Si  Si10  1  0.30352288  0.41890960  0.84082161  1
  Si  Si11  1  0.69647712  0.58109040  0.34082161  1
  Si  Si12  1  0.98759455  0.33234054  0.76165816  1
  Si  Si13  1  0.01240545  0.66765946  0.26165816  1
  Si  Si14  1  0.51240545  0.33234054  0.26165816  1
  Si  Si15  1  0.48759455  0.66765946  0.76165816  1
  Si  Si16  1  0.15196754  0.59875311  0.50129160  1
  Si  Si17  1  0.84803246  0.40124689  0.00129160  1
  Si  Si18  1  0.34803246  0.59875311  0.00129160  1
  Si  Si19  1  0.65196754  0.40124689  0.50129160  1
  Si  Si20  1  0.00619982  0.16991785  0.41540720  1
  Si  Si21  1  0.99380018  0.83008215  0.91540720  1
  Si  Si22  1  0.49380018  0.16991785  0.91540720  1
  Si  Si23  1  0.50619982  0.83008215  0.41540720  1
  O  O24  1  0.33359792  0.85463924  0.38910253  1
  O  O25  1  0.66640208  0.14536076  0.88910253  1
  O  O26  1  0.16640208  0.85463924  0.88910253  1
  O  O27  1  0.83359792  0.14536076  0.38910253  1
  O  O28  1  0.08909105  0.74697164  0.45988443  1
  O  O29  1  0.91090895  0.25302836  0.95988443  1
  O  O30  1  0.41090895  0.74697164  0.95988443  1
  O  O31  1  0.58909105  0.25302836  0.45988443  1
  O  O32  1  0.08778638  0.81218657  0.30065551  1
  O  O33  1  0.91221362  0.18781343  0.80065551  1
  O  O34  1  0.41221362  0.81218657  0.80065551  1
  O  O35  1  0.58778638  0.18781343  0.30065551  1
  O  O36  1  0.09732875  0.02015799  0.41187980  1
  O  O37  1  0.90267125  0.97984201  0.91187980  1
  O  O38  1  0.40267125  0.02015799  0.91187980  1
  O  O39  1  0.59732875  0.97984201  0.41187980  1
  O  O40  1  0.14634268  0.36089074  0.80609239  1
  O  O41  1  0.85365732  0.63910926  0.30609239  1
  O  O42  1  0.35365732  0.36089074  0.30609239  1
  O  O43  1  0.64634268  0.63910926  0.80609239  1
  O  O44  1  0.87636569  0.46894288  0.77544405  1
  O  O45  1  0.12363431  0.53105712  0.27544405  1
  O  O46  1  0.62363431  0.46894288  0.27544405  1
  O  O47  1  0.37636569  0.53105712  0.77544405  1
  O  O48  1  0.01306842  0.30944593  0.66393419  1
  O  O49  1  0.98693158  0.69055407  0.16393419  1
  O  O50  1  0.48693158  0.30944593  0.16393419  1
  O  O51  1  0.51306842  0.69055407  0.66393419  1
  O  O52  1  0.98261963  0.76848053  0.00894255  1
  O  O53  1  0.01738037  0.23151947  0.50894255  1
  O  O54  1  0.51738037  0.76848053  0.50894255  1
  O  O55  1  0.48261963  0.23151947  0.00894255  1
  O  O56  1  0.22302167  0.63883497  0.06982732  1
  O  O57  1  0.77697833  0.36116503  0.56982732  1
  O  O58  1  0.27697833  0.63883497  0.56982732  1
  O  O59  1  0.72302167  0.36116503  0.06982732  1
  O  O60  1  0.98086026  0.48784170  0.04655889  1
  O  O61  1  0.01913974  0.51215830  0.54655889  1
  O  O62  1  0.51913974  0.48784170  0.54655889  1
  O  O63  1  0.48086026  0.51215830  0.04655889  1
  O  O64  1  0.08133109  0.28553271  0.35277605  1
  O  O65  1  0.91866891  0.71446729  0.85277605  1
  O  O66  1  0.41866891  0.28553271  0.85277605  1
  O  O67  1  0.58133109  0.71446729  0.35277605  1
  O  O68  1  0.22663063  0.49963787  0.42875410  1
  O  O69  1  0.77336937  0.50036213  0.92875410  1
  O  O70  1  0.27336937  0.49963787  0.92875410  1
  O  O71  1  0.72663063  0.50036213  0.42875410  1
