# generated using pymatgen
data_MgB4O7
_symmetry_space_group_name_H-M   'P 1'
_cell_length_a   7.95240189
_cell_length_b   8.59992548
_cell_length_c   13.75487827
_cell_angle_alpha   90.00000000
_cell_angle_beta   90.00000000
_cell_angle_gamma   90.00000000
_symmetry_Int_Tables_number   1
_chemical_formula_structural   MgB4O7
_chemical_formula_sum   'Mg8 B32 O56'
_cell_volume   940.69700026
_cell_formula_units_Z   8
loop_
 _symmetry_equiv_pos_site_id
 _symmetry_equiv_pos_as_xyz
  1  'x, y, z'
loop_
 _atom_site_type_symbol
 _atom_site_label
 _atom_site_symmetry_multiplicity
 _atom_site_fract_x
 _atom_site_fract_y
 _atom_site_fract_z
 _atom_site_occupancy
  Mg  Mg0  1  0.61638812  0.09992921  0.38847950  1
  Mg  Mg1  1  0.11638812  0.40007079  0.61152050  1
  Mg  Mg2  1  0.38361188  0.59992921  0.11152050  1
  Mg  Mg3  1  0.88361188  0.90007079  0.88847950  1
  Mg  Mg4  1  0.38361188  0.90007079  0.61152050  1
  Mg  Mg5  1  0.88361188  0.59992921  0.38847950  1
  Mg  Mg6  1  0.61638812  0.40007079  0.88847950  1
  Mg  Mg7  1  0.11638812  0.09992921  0.11152050  1
  B  B8  1  0.17891733  0.13031909  0.46537581  1
  B  B9  1  0.67891733  0.36968091  0.53462419  1
  B  B10  1  0.82108267  0.63031909  0.03462419  1
  B  B11  1  0.32108267  0.86968091  0.96537581  1
  B  B12  1  0.82108267  0.86968091  0.53462419  1
  B  B13  1  0.32108267  0.63031909  0.46537581  1
  B  B14  1  0.17891733  0.36968091  0.96537581  1
  B  B15  1  0.67891733  0.13031909  0.03462419  1
  B  B16  1  0.97987368  0.07283631  0.33414391  1
  B  B17  1  0.47987368  0.42716369  0.66585609  1
  B  B18  1  0.02012632  0.57283631  0.16585609  1
  B  B19  1  0.52012632  0.92716369  0.83414391  1
  B  B20  1  0.02012632  0.92716369  0.66585609  1
  B  B21  1  0.52012632  0.57283631  0.33414391  1
  B  B22  1  0.97987368  0.42716369  0.83414391  1
  B  B23  1  0.47987368  0.07283631  0.16585609  1
  B  B24  1  0.04267399  0.33430317  0.26445798  1
  B  B25  1  0.54267399  0.16569683  0.73554202  1
  B  B26  1  0.95732601  0.83430317  0.23554202  1
  B  B27  1  0.45732601  0.66569683  0.76445798  1
  B  B28  1  0.95732601  0.66569683  0.73554202  1
  B  B29  1  0.45732601  0.83430317  0.26445798  1
  B  B30  1  0.04267399  0.16569683  0.76445798  1
  B  B31  1  0.54267399  0.33430317  0.23554202  1
  B  B32  1  0.93413625  0.29616504  0.43319197  1
  B  B33  1  0.43413625  0.20383496  0.56680803  1
  B  B34  1  0.06586375  0.79616504  0.06680803  1
  B  B35  1  0.56586375  0.70383496  0.93319197  1
  B  B36  1  0.06586375  0.70383496  0.56680803  1
  B  B37  1  0.56586375  0.79616504  0.43319197  1
  B  B38  1  0.93413625  0.20383496  0.93319197  1
  B  B39  1  0.43413625  0.29616504  0.06680803  1
  O  O40  1  0.13302396  0.04314771  0.38887899  1
  O  O41  1  0.63302396  0.45685229  0.61112101  1
  O  O42  1  0.86697604  0.54314771  0.11112101  1
  O  O43  1  0.36697604  0.95685229  0.88887899  1
  O  O44  1  0.86697604  0.95685229  0.61112101  1
  O  O45  1  0.36697604  0.54314771  0.38887899  1
  O  O46  1  0.13302396  0.45685229  0.88887899  1
  O  O47  1  0.63302396  0.04314771  0.11112101  1
  O  O48  1  0.07902818  0.25290466  0.49705652  1
  O  O49  1  0.57902818  0.24709534  0.50294348  1
  O  O50  1  0.92097182  0.75290466  0.00294348  1
  O  O51  1  0.42097182  0.74709534  0.99705652  1
  O  O52  1  0.92097182  0.74709534  0.50294348  1
  O  O53  1  0.42097182  0.75290466  0.49705652  1
  O  O54  1  0.07902818  0.24709534  0.99705652  1
  O  O55  1  0.57902818  0.25290466  0.00294348  1
  O  O56  1  0.03195429  0.17634113  0.24691409  1
  O  O57  1  0.53195429  0.32365887  0.75308591  1
  O  O58  1  0.96804571  0.67634113  0.25308591  1
  O  O59  1  0.46804571  0.82365887  0.74691409  1
  O  O60  1  0.96804571  0.82365887  0.75308591  1
  O  O61  1  0.46804571  0.67634113  0.24691409  1
  O  O62  1  0.03195429  0.32365887  0.74691409  1
  O  O63  1  0.53195429  0.17634113  0.25308591  1
  O  O64  1  0.99601674  0.39579107  0.35264885  1
  O  O65  1  0.49601674  0.10420893  0.64735115  1
  O  O66  1  0.00398326  0.89579107  0.14735115  1
  O  O67  1  0.50398326  0.60420893  0.85264885  1
  O  O68  1  0.00398326  0.60420893  0.64735115  1
  O  O69  1  0.50398326  0.89579107  0.35264885  1
  O  O70  1  0.99601674  0.10420893  0.85264885  1
  O  O71  1  0.49601674  0.39579107  0.14735115  1
  O  O72  1  0.82948553  0.40117699  0.48903209  1
  O  O73  1  0.32948553  0.09882301  0.51096791  1
  O  O74  1  0.17051447  0.90117699  0.01096791  1
  O  O75  1  0.67051447  0.59882301  0.98903209  1
  O  O76  1  0.17051447  0.59882301  0.51096791  1
  O  O77  1  0.67051447  0.90117699  0.48903209  1
  O  O78  1  0.82948553  0.09882301  0.98903209  1
  O  O79  1  0.32948553  0.40117699  0.01096791  1
  O  O80  1  0.85732805  0.16009632  0.39230052  1
  O  O81  1  0.35732805  0.33990368  0.60769948  1
  O  O82  1  0.14267195  0.66009632  0.10769948  1
  O  O83  1  0.64267195  0.83990368  0.89230052  1
  O  O84  1  0.14267195  0.83990368  0.60769948  1
  O  O85  1  0.64267195  0.66009632  0.39230052  1
  O  O86  1  0.85732805  0.33990368  0.89230052  1
  O  O87  1  0.35732805  0.16009632  0.10769948  1
  O  O88  1  0.59893167  0.43005808  0.30617857  1
  O  O89  1  0.09893167  0.06994192  0.69382143  1
  O  O90  1  0.40106833  0.93005808  0.19382143  1
  O  O91  1  0.90106833  0.56994192  0.80617857  1
  O  O92  1  0.40106833  0.56994192  0.69382143  1
  O  O93  1  0.90106833  0.93005808  0.30617857  1
  O  O94  1  0.59893167  0.06994192  0.80617857  1
  O  O95  1  0.09893167  0.43005808  0.19382143  1
