# generated using pymatgen
data_Lu3O2F5
_symmetry_space_group_name_H-M   'P 1'
_cell_length_a   5.19041620
_cell_length_b   5.46176382
_cell_length_c   16.71197171
_cell_angle_alpha   90.00000000
_cell_angle_beta   90.00000000
_cell_angle_gamma   90.00000000
_symmetry_Int_Tables_number   1
_chemical_formula_structural   Lu3O2F5
_chemical_formula_sum   'Lu12 O8 F20'
_cell_volume   473.76480172
_cell_formula_units_Z   4
loop_
 _symmetry_equiv_pos_site_id
 _symmetry_equiv_pos_as_xyz
  1  'x, y, z'
loop_
 _atom_site_type_symbol
 _atom_site_label
 _atom_site_symmetry_multiplicity
 _atom_site_fract_x
 _atom_site_fract_y
 _atom_site_fract_z
 _atom_site_occupancy
  Lu  Lu0  1  0.96114227  0.67073877  0.59728457  1
  Lu  Lu1  1  0.46114227  0.82926123  0.40271543  1
  Lu  Lu2  1  0.45647304  0.26472857  0.25000000  1
  Lu  Lu3  1  0.53885773  0.17073877  0.59728457  1
  Lu  Lu4  1  0.53885773  0.17073877  0.90271543  1
  Lu  Lu5  1  0.95647304  0.23527143  0.75000000  1
  Lu  Lu6  1  0.03885773  0.32926123  0.40271543  1
  Lu  Lu7  1  0.54352696  0.73527143  0.75000000  1
  Lu  Lu8  1  0.03885773  0.32926123  0.09728457  1
  Lu  Lu9  1  0.96114227  0.67073877  0.90271543  1
  Lu  Lu10  1  0.46114227  0.82926123  0.09728457  1
  Lu  Lu11  1  0.04352696  0.76472857  0.25000000  1
  O  O12  1  0.29850555  0.54018712  0.33144791  1
  O  O13  1  0.79850555  0.95981288  0.66855209  1
  O  O14  1  0.70149445  0.45981288  0.83144791  1
  O  O15  1  0.20149445  0.04018712  0.33144791  1
  O  O16  1  0.70149445  0.45981288  0.66855209  1
  O  O17  1  0.20149445  0.04018712  0.16855209  1
  O  O18  1  0.79850555  0.95981288  0.83144791  1
  O  O19  1  0.29850555  0.54018712  0.16855209  1
  F  F20  1  0.71274067  0.87806744  0.51434784  1
  F  F21  1  0.82402534  0.66502624  0.37480607  1
  F  F22  1  0.17597466  0.33497376  0.62519393  1
  F  F23  1  0.85667838  0.39274901  0.25000000  1
  F  F24  1  0.64332162  0.89274901  0.25000000  1
  F  F25  1  0.21274067  0.62193256  0.48565216  1
  F  F26  1  0.28725933  0.12193256  0.48565216  1
  F  F27  1  0.28725933  0.12193256  0.01434784  1
  F  F28  1  0.32402534  0.83497376  0.62519393  1
  F  F29  1  0.78725933  0.37806744  0.51434784  1
  F  F30  1  0.21274067  0.62193256  0.01434784  1
  F  F31  1  0.78725933  0.37806744  0.98565216  1
  F  F32  1  0.32402534  0.83497376  0.87480607  1
  F  F33  1  0.14332162  0.60725099  0.75000000  1
  F  F34  1  0.67597466  0.16502624  0.37480607  1
  F  F35  1  0.17597466  0.33497376  0.87480607  1
  F  F36  1  0.71274067  0.87806744  0.98565216  1
  F  F37  1  0.82402534  0.66502624  0.12519393  1
  F  F38  1  0.67597466  0.16502624  0.12519393  1
  F  F39  1  0.35667838  0.10725099  0.75000000  1
