# generated using pymatgen
data_Ca2P2O7
_symmetry_space_group_name_H-M   'P 1'
_cell_length_a   8.49548206
_cell_length_b   5.32402922
_cell_length_c   13.73525958
_cell_angle_alpha   67.04385311
_cell_angle_beta   90.00000000
_cell_angle_gamma   90.00000000
_symmetry_Int_Tables_number   1
_chemical_formula_structural   Ca2P2O7
_chemical_formula_sum   'Ca8 P8 O28'
_cell_volume   572.04785006
_cell_formula_units_Z   4
loop_
 _symmetry_equiv_pos_site_id
 _symmetry_equiv_pos_as_xyz
  1  'x, y, z'
loop_
 _atom_site_type_symbol
 _atom_site_label
 _atom_site_symmetry_multiplicity
 _atom_site_fract_x
 _atom_site_fract_y
 _atom_site_fract_z
 _atom_site_occupancy
  Ca  Ca0  1  0.38736726  0.82721486  0.40996356  1
  Ca  Ca1  1  0.88736726  0.17278514  0.09003644  1
  Ca  Ca2  1  0.61263274  0.17278514  0.59003644  1
  Ca  Ca3  1  0.11263274  0.82721486  0.90996356  1
  Ca  Ca4  1  0.18701270  0.50796823  0.23464925  1
  Ca  Ca5  1  0.68701270  0.49203177  0.26535075  1
  Ca  Ca6  1  0.81298730  0.49203177  0.76535075  1
  Ca  Ca7  1  0.31298730  0.50796823  0.73464925  1
  P  P8  1  0.51198425  0.95364252  0.81909974  1
  P  P9  1  0.01198425  0.04635748  0.68090026  1
  P  P10  1  0.48801575  0.04635748  0.18090026  1
  P  P11  1  0.98801575  0.95364252  0.31909974  1
  P  P12  1  0.76459256  0.75898175  0.97281637  1
  P  P13  1  0.26459256  0.24101825  0.52718363  1
  P  P14  1  0.23540744  0.24101825  0.02718363  1
  P  P15  1  0.73540744  0.75898175  0.47281637  1
  O  O16  1  0.34351037  0.01113491  0.83676499  1
  O  O17  1  0.84351037  0.98886509  0.66323501  1
  O  O18  1  0.65648963  0.98886509  0.16323501  1
  O  O19  1  0.15648963  0.01113491  0.33676499  1
  O  O20  1  0.59776605  0.22140570  0.76344510  1
  O  O21  1  0.09776605  0.77859430  0.73655490  1
  O  O22  1  0.40223395  0.77859430  0.23655490  1
  O  O23  1  0.90223395  0.22140570  0.26344510  1
  O  O24  1  0.53278250  0.77028800  0.75802148  1
  O  O25  1  0.03278250  0.22971200  0.74197852  1
  O  O26  1  0.46721750  0.22971200  0.24197852  1
  O  O27  1  0.96721750  0.77028800  0.25802148  1
  O  O28  1  0.75959408  0.58178694  0.08896471  1
  O  O29  1  0.25959408  0.41821306  0.41103529  1
  O  O30  1  0.24040592  0.41821306  0.91103529  1
  O  O31  1  0.74040592  0.58178694  0.58896471  1
  O  O32  1  0.91382321  0.79894526  0.43441120  1
  O  O33  1  0.41382321  0.20105474  0.06558880  1
  O  O34  1  0.08617679  0.20105474  0.56558880  1
  O  O35  1  0.58617679  0.79894526  0.93441120  1
  O  O36  1  0.65909315  0.03623136  0.44596969  1
  O  O37  1  0.15909315  -0.03623136  0.05403031  1
  O  O38  1  0.34090685  -0.03623136  0.55403031  1
  O  O39  1  0.84090685  0.03623136  0.94596969  1
  O  O40  1  0.64583685  0.60448346  0.41607716  1
  O  O41  1  0.14583685  0.39551654  0.08392284  1
  O  O42  1  0.35416315  0.39551654  0.58392284  1
  O  O43  1  0.85416315  0.60448346  0.91607716  1
