# generated using pymatgen
data_Mg2B2O5
_symmetry_space_group_name_H-M   'P 1'
_cell_length_a   3.10597618
_cell_length_b   9.18056613
_cell_length_c   12.32612256
_cell_angle_alpha   75.73640961
_cell_angle_beta   90.00000000
_cell_angle_gamma   90.00000000
_symmetry_Int_Tables_number   1
_chemical_formula_structural   Mg2B2O5
_chemical_formula_sum   'Mg8 B8 O20'
_cell_volume   340.63960969
_cell_formula_units_Z   4
loop_
 _symmetry_equiv_pos_site_id
 _symmetry_equiv_pos_as_xyz
  1  'x, y, z'
loop_
 _atom_site_type_symbol
 _atom_site_label
 _atom_site_symmetry_multiplicity
 _atom_site_fract_x
 _atom_site_fract_y
 _atom_site_fract_z
 _atom_site_occupancy
  Mg  Mg0  1  0.79262371  0.64606268  0.60403129  1
  Mg  Mg1  1  0.29262371  0.35393732  0.89596871  1
  Mg  Mg2  1  0.20737629  0.35393732  0.39596871  1
  Mg  Mg3  1  0.70737629  0.64606268  0.10403129  1
  Mg  Mg4  1  0.71766821  0.10340098  0.31310745  1
  Mg  Mg5  1  0.21766821  0.89659902  0.18689255  1
  Mg  Mg6  1  0.28233179  0.89659902  0.68689255  1
  Mg  Mg7  1  0.78233179  0.10340098  0.81310745  1
  B  B8  1  0.84596366  0.16853844  0.56047693  1
  B  B9  1  0.34596366  0.83146156  0.93952307  1
  B  B10  1  0.15403634  0.83146156  0.43952307  1
  B  B11  1  0.65403634  0.16853844  0.06047693  1
  B  B12  1  0.27439747  0.35732245  0.15923640  1
  B  B13  1  0.77439747  0.64267755  0.34076360  1
  B  B14  1  0.72560253  0.64267755  0.84076360  1
  B  B15  1  0.22560253  0.35732245  0.65923640  1
  O  O16  1  0.80217750  0.49457742  0.86301839  1
  O  O17  1  0.30217750  0.50542258  0.63698161  1
  O  O18  1  0.19782250  0.50542258  0.13698161  1
  O  O19  1  0.69782250  0.49457742  0.36301839  1
  O  O20  1  0.27519558  0.25898258  0.76165567  1
  O  O21  1  0.77519558  0.74101742  0.73834433  1
  O  O22  1  0.72480442  0.74101742  0.23834433  1
  O  O23  1  0.22480442  0.25898258  0.26165567  1
  O  O24  1  0.77826892  0.17950222  0.95345827  1
  O  O25  1  0.27826892  0.82049778  0.54654173  1
  O  O26  1  0.22173108  0.82049778  0.04654173  1
  O  O27  1  0.72173108  0.17950222  0.45345827  1
  O  O28  1  0.28442614  0.94666994  0.84767254  1
  O  O29  1  0.78442614  0.05333006  0.65232746  1
  O  O30  1  0.71557386  0.05333006  0.15232746  1
  O  O31  1  0.21557386  0.94666994  0.34767254  1
  O  O32  1  0.42525898  0.29990493  0.06945706  1
  O  O33  1  0.92525898  0.70009507  0.43054294  1
  O  O34  1  0.57474102  0.70009507  0.93054294  1
  O  O35  1  0.07474102  0.29990493  0.56945706  1
