# generated using pymatgen
data_Mg(PO3)2
_symmetry_space_group_name_H-M   'P 1'
_cell_length_a   7.17062525
_cell_length_b   7.17062525
_cell_length_c   9.94512988
_cell_angle_alpha   66.54749131
_cell_angle_beta   66.54749131
_cell_angle_gamma   70.19039250
_symmetry_Int_Tables_number   1
_chemical_formula_structural   Mg(PO3)2
_chemical_formula_sum   'Mg4 P8 O24'
_cell_volume   420.34644021
_cell_formula_units_Z   4
loop_
 _symmetry_equiv_pos_site_id
 _symmetry_equiv_pos_as_xyz
  1  'x, y, z'
loop_
 _atom_site_type_symbol
 _atom_site_label
 _atom_site_symmetry_multiplicity
 _atom_site_fract_x
 _atom_site_fract_y
 _atom_site_fract_z
 _atom_site_occupancy
  Mg  Mg0  1  0.94616152  0.05383848  0.75000000  1
  Mg  Mg1  1  0.05383848  0.94616152  0.25000000  1
  Mg  Mg2  1  0.00000000  0.50000000  0.50000000  1
  Mg  Mg3  1  0.50000000  0.00000000  -0.00000000  1
  P  P4  1  0.27060674  0.74642734  0.52397482  1
  P  P5  1  0.25357266  0.72939326  0.97602518  1
  P  P6  1  0.72939326  0.25357266  0.47602518  1
  P  P7  1  0.74642734  0.27060674  0.02397482  1
  P  P8  1  0.70708848  0.68813612  0.80315379  1
  P  P9  1  0.31186388  0.29291152  0.69684621  1
  P  P10  1  0.29291152  0.31186388  0.19684621  1
  P  P11  1  0.68813612  0.70708848  0.30315379  1
  O  O12  1  0.14817024  0.90956458  0.59678113  1
  O  O13  1  0.09043542  0.85182976  0.90321887  1
  O  O14  1  0.85182976  0.09043542  0.40321887  1
  O  O15  1  0.90956458  0.14817024  0.09678113  1
  O  O16  1  0.19325685  0.70882320  0.41861009  1
  O  O17  1  0.29117680  0.80674315  0.08138991  1
  O  O18  1  0.80674315  0.29117680  0.58138991  1
  O  O19  1  0.70882320  0.19325685  0.91861009  1
  O  O20  1  0.49914724  0.78763647  0.43489577  1
  O  O21  1  0.21236353  0.50085276  0.06510423  1
  O  O22  1  0.50085276  0.21236353  0.56510423  1
  O  O23  1  0.78763647  0.49914724  0.93489577  1
  O  O24  1  0.81472220  0.65354346  0.65263356  1
  O  O25  1  0.34645654  0.18527780  0.84736644  1
  O  O26  1  0.18527780  0.34645654  0.34736644  1
  O  O27  1  0.65354346  0.81472220  0.15263356  1
  O  O28  1  0.71788593  0.87965936  0.82424815  1
  O  O29  1  0.12034064  0.28211407  0.67575185  1
  O  O30  1  0.28211407  0.12034064  0.17575185  1
  O  O31  1  0.87965936  0.71788593  0.32424815  1
  O  O32  1  0.46923561  0.68509096  0.84672299  1
  O  O33  1  0.31490904  0.53076439  0.65327701  1
  O  O34  1  0.53076439  0.31490904  0.15327701  1
  O  O35  1  0.68509096  0.46923561  0.34672299  1
