# generated using pymatgen
data_AlH12(ClO2)3
_symmetry_space_group_name_H-M   'P 1'
_cell_length_a   7.87524396
_cell_length_b   7.87524396
_cell_length_c   7.87524372
_cell_angle_alpha   96.50648313
_cell_angle_beta   96.50648313
_cell_angle_gamma   96.50648594
_symmetry_Int_Tables_number   1
_chemical_formula_structural   AlH12(ClO2)3
_chemical_formula_sum   'Al2 H24 Cl6 O12'
_cell_volume   478.19347354
_cell_formula_units_Z   2
loop_
 _symmetry_equiv_pos_site_id
 _symmetry_equiv_pos_as_xyz
  1  'x, y, z'
loop_
 _atom_site_type_symbol
 _atom_site_label
 _atom_site_symmetry_multiplicity
 _atom_site_fract_x
 _atom_site_fract_y
 _atom_site_fract_z
 _atom_site_occupancy
  Al  Al0  1  0.50000000  0.50000000  0.50000000  1
  Al  Al1  1  -0.00000000  -0.00000000  -0.00000000  1
  H  H2  1  0.88733177  0.29071398  0.08519014  1
  H  H3  1  0.08519014  0.88733177  0.29071398  1
  H  H4  1  0.29071398  0.08519014  0.88733177  1
  H  H5  1  0.61266823  0.41480986  0.20928602  1
  H  H6  1  0.20928602  0.61266823  0.41480986  1
  H  H7  1  0.41480986  0.20928602  0.61266823  1
  H  H8  1  0.11266823  0.70928602  0.91480986  1
  H  H9  1  0.91480986  0.11266823  0.70928602  1
  H  H10  1  0.70928602  0.91480986  0.11266823  1
  H  H11  1  0.38733177  0.58519014  0.79071398  1
  H  H12  1  0.79071398  0.38733177  0.58519014  1
  H  H13  1  0.58519014  0.79071398  0.38733177  1
  H  H14  1  0.95817332  0.21359817  0.25775538  1
  H  H15  1  0.25775538  0.95817332  0.21359817  1
  H  H16  1  0.21359817  0.25775538  0.95817332  1
  H  H17  1  0.54182668  0.24224462  0.28640183  1
  H  H18  1  0.28640183  0.54182668  0.24224462  1
  H  H19  1  0.24224462  0.28640183  0.54182668  1
  H  H20  1  0.04182668  0.78640183  0.74224462  1
  H  H21  1  0.74224462  0.04182668  0.78640183  1
  H  H22  1  0.75775538  0.71359817  0.45817332  1
  H  H23  1  0.71359817  0.45817332  0.75775538  1
  H  H24  1  0.45817332  0.75775538  0.71359817  1
  H  H25  1  0.78640183  0.74224462  0.04182668  1
  Cl  Cl26  1  0.51756524  0.98243476  0.25000000  1
  Cl  Cl27  1  0.75000000  0.48243476  0.01756524  1
  Cl  Cl28  1  0.01756524  0.75000000  0.48243476  1
  Cl  Cl29  1  0.48243476  0.01756524  0.75000000  1
  Cl  Cl30  1  0.98243476  0.25000000  0.51756524  1
  Cl  Cl31  1  0.25000000  0.51756524  0.98243476  1
  O  O32  1  0.94422450  0.19625487  0.13008471  1
  O  O33  1  0.13008471  0.94422450  0.19625487  1
  O  O34  1  0.19625487  0.13008471  0.94422450  1
  O  O35  1  0.55577550  0.36991529  0.30374513  1
  O  O36  1  0.30374513  0.55577550  0.36991529  1
  O  O37  1  0.36991529  0.30374513  0.55577550  1
  O  O38  1  0.05577550  0.80374513  0.86991529  1
  O  O39  1  0.86991529  0.05577550  0.80374513  1
  O  O40  1  0.80374513  0.86991529  0.05577550  1
  O  O41  1  0.44422450  0.63008471  0.69625487  1
  O  O42  1  0.69625487  0.44422450  0.63008471  1
  O  O43  1  0.63008471  0.69625487  0.44422450  1
