# generated using pymatgen
data_YH12(ClO2)3
_symmetry_space_group_name_H-M   'P 1'
_cell_length_a   6.46902367
_cell_length_b   7.78377398
_cell_length_c   11.90179421
_cell_angle_alpha   52.98786633
_cell_angle_beta   90.00000000
_cell_angle_gamma   90.00000000
_symmetry_Int_Tables_number   1
_chemical_formula_structural   YH12(ClO2)3
_chemical_formula_sum   'Y2 H24 Cl6 O12'
_cell_volume   478.54269301
_cell_formula_units_Z   2
loop_
 _symmetry_equiv_pos_site_id
 _symmetry_equiv_pos_as_xyz
  1  'x, y, z'
loop_
 _atom_site_type_symbol
 _atom_site_label
 _atom_site_symmetry_multiplicity
 _atom_site_fract_x
 _atom_site_fract_y
 _atom_site_fract_z
 _atom_site_occupancy
  Y  Y0  1  0.84384640  0.00000000  0.75000000  1
  Y  Y1  1  0.15615360  0.00000000  0.25000000  1
  H  H2  1  0.90433764  0.75762237  0.63205923  1
  H  H3  1  0.90433764  0.24237763  0.86794077  1
  H  H4  1  0.09566236  0.24237763  0.36794077  1
  H  H5  1  0.09566236  0.75762237  0.13205923  1
  H  H6  1  0.08520578  0.67798507  0.73901077  1
  H  H7  1  0.08520578  0.32201493  0.76098923  1
  H  H8  1  0.91479422  0.32201493  0.26098923  1
  H  H9  1  0.91479422  0.67798507  0.23901077  1
  H  H10  1  0.52990038  0.79873348  0.68262244  1
  H  H11  1  0.52990038  0.20126652  0.81737756  1
  H  H12  1  0.47009962  0.20126652  0.31737756  1
  H  H13  1  0.47009962  0.79873348  0.18262244  1
  H  H14  1  0.44996691  0.03198017  0.61381657  1
  H  H15  1  0.44996691  0.96801983  0.88618343  1
  H  H16  1  0.55003309  0.96801983  0.38618343  1
  H  H17  1  0.55003309  0.03198017  0.11381657  1
  H  H18  1  0.75227036  0.53446624  0.95833704  1
  H  H19  1  0.75227036  0.46553376  0.54166296  1
  H  H20  1  0.24772964  0.46553376  0.04166296  1
  H  H21  1  0.24772964  0.53446624  0.45833704  1
  H  H22  1  0.33486849  0.63252016  0.52990796  1
  H  H23  1  0.33486849  0.36747984  0.97009204  1
  H  H24  1  0.66513151  0.36747984  0.47009204  1
  H  H25  1  0.66513151  0.63252016  0.02990796  1
  Cl  Cl26  1  0.37172843  0.50000000  0.75000000  1
  Cl  Cl27  1  0.62827157  0.50000000  0.25000000  1
  Cl  Cl28  1  0.16743310  0.20237228  0.55792376  1
  Cl  Cl29  1  0.16743310  0.79762772  0.94207624  1
  Cl  Cl30  1  0.83256690  0.79762772  0.44207624  1
  Cl  Cl31  1  0.83256690  0.20237228  0.05792376  1
  O  O32  1  0.94691978  0.74051358  0.71755349  1
  O  O33  1  0.94691978  0.25948642  0.78244651  1
  O  O34  1  0.05308022  0.25948642  0.28244651  1
  O  O35  1  0.05308022  0.74051358  0.21755349  1
  O  O36  1  0.57615915  0.94429003  0.64403176  1
  O  O37  1  0.57615915  0.05570997  0.85596824  1
  O  O38  1  0.42384085  0.05570997  0.35596824  1
  O  O39  1  0.42384085  0.94429003  0.14403176  1
  O  O40  1  0.70153620  0.66898023  0.93809960  1
  O  O41  1  0.70153620  0.33101977  0.56190040  1
  O  O42  1  0.29846380  0.33101977  0.06190040  1
  O  O43  1  0.29846380  0.66898023  0.43809960  1
