# generated using pymatgen
data_CsPH3O4F
_symmetry_space_group_name_H-M   'P 1'
_cell_length_a   7.84959285
_cell_length_b   9.44635626
_cell_length_c   14.68450278
_cell_angle_alpha   90.00000000
_cell_angle_beta   90.00000000
_cell_angle_gamma   90.00000000
_symmetry_Int_Tables_number   1
_chemical_formula_structural   CsPH3O4F
_chemical_formula_sum   'Cs8 P8 H24 O32 F8'
_cell_volume   1088.85662354
_cell_formula_units_Z   8
loop_
 _symmetry_equiv_pos_site_id
 _symmetry_equiv_pos_as_xyz
  1  'x, y, z'
loop_
 _atom_site_type_symbol
 _atom_site_label
 _atom_site_symmetry_multiplicity
 _atom_site_fract_x
 _atom_site_fract_y
 _atom_site_fract_z
 _atom_site_occupancy
  Cs  Cs0  1  0.70012954  0.57139806  0.33425649  1
  Cs  Cs1  1  0.79987046  0.42860194  0.83425649  1
  Cs  Cs2  1  0.20012954  0.57139806  0.16574351  1
  Cs  Cs3  1  0.70012954  0.92860194  0.83425649  1
  Cs  Cs4  1  0.29987046  0.07139806  0.16574351  1
  Cs  Cs5  1  0.79987046  0.07139806  0.33425649  1
  Cs  Cs6  1  0.29987046  0.42860194  0.66574351  1
  Cs  Cs7  1  0.20012954  0.92860194  0.66574351  1
  P  P8  1  0.80959168  0.20135264  0.06003351  1
  P  P9  1  0.30959168  0.20135264  0.43996649  1
  P  P10  1  0.19040832  0.79864736  0.93996649  1
  P  P11  1  0.80959168  0.29864736  0.56003351  1
  P  P12  1  0.19040832  0.70135264  0.43996649  1
  P  P13  1  0.69040832  0.70135264  0.06003351  1
  P  P14  1  0.30959168  0.29864736  0.93996649  1
  P  P15  1  0.69040832  0.79864736  0.56003351  1
  H  H16  1  0.72075276  0.51724949  0.57361855  1
  H  H17  1  0.55389058  0.79866147  0.19896631  1
  H  H18  1  0.77924724  0.01724949  0.57361855  1
  H  H19  1  0.72075276  0.98275051  0.07361855  1
  H  H20  1  0.44610942  0.29866147  0.30103369  1
  H  H21  1  0.55389058  0.70133853  0.69896631  1
  H  H22  1  0.01664088  0.34009676  0.46045705  1
  H  H23  1  0.44610942  0.20133853  0.80103369  1
  H  H24  1  0.27924724  0.01724949  0.92638145  1
  H  H25  1  0.05389058  0.79866147  0.30103369  1
  H  H26  1  0.94610942  0.20133853  0.69896631  1
  H  H27  1  0.01664088  0.15990324  0.96045705  1
  H  H28  1  0.22075276  0.51724949  0.92638145  1
  H  H29  1  0.94610942  0.29866147  0.19896631  1
  H  H30  1  0.98335912  0.84009676  0.03954295  1
  H  H31  1  0.77924724  0.48275051  0.07361855  1
  H  H32  1  0.22075276  0.98275051  0.42638145  1
  H  H33  1  0.98335912  0.65990324  0.53954295  1
  H  H34  1  0.48335912  0.84009676  0.46045705  1
  H  H35  1  0.05389058  0.70133853  0.80103369  1
  H  H36  1  0.48335912  0.65990324  0.96045705  1
  H  H37  1  0.51664088  0.15990324  0.53954295  1
  H  H38  1  0.27924724  0.48275051  0.42638145  1
  H  H39  1  0.51664088  0.34009676  0.03954295  1
  O  O40  1  0.32325863  0.91687121  0.91609525  1
  O  O41  1  0.32325863  0.58312879  0.41609525  1
  O  O42  1  0.88726797  0.34477337  0.46639881  1
  O  O43  1  0.04938115  0.78989541  0.86997537  1
  O  O44  1  0.20924914  0.16272734  0.95026817  1
  O  O45  1  0.54938115  0.78989541  0.63002463  1
  O  O46  1  0.70924914  0.16272734  0.54973183  1
  O  O47  1  0.20924914  0.33727266  0.45026817  1
  O  O48  1  0.17674137  0.41687121  0.91609525  1
  O  O49  1  0.11273203  0.84477337  0.03360119  1
  O  O50  1  0.82325863  0.58312879  0.08390475  1
  O  O51  1  0.67674137  0.08312879  0.08390475  1
  O  O52  1  0.67674137  0.41687121  0.58390475  1
  O  O53  1  0.88726797  0.15522663  0.96639881  1
  O  O54  1  0.79075086  0.66272734  0.54973183  1
  O  O55  1  0.45061885  0.21010459  0.36997537  1
  O  O56  1  0.61273203  0.65522663  0.96639881  1
  O  O57  1  0.29075086  0.83727266  0.45026817  1
  O  O58  1  0.11273203  0.65522663  0.53360119  1
  O  O59  1  0.95061885  0.21010459  0.13002463  1
  O  O60  1  0.17674137  0.08312879  0.41609525  1
  O  O61  1  0.04938115  0.71010459  0.36997537  1
  O  O62  1  0.61273203  0.84477337  0.46639881  1
  O  O63  1  0.95061885  0.28989541  0.63002463  1
  O  O64  1  0.54938115  0.71010459  0.13002463  1
  O  O65  1  0.38726797  0.15522663  0.53360119  1
  O  O66  1  0.45061885  0.28989541  0.86997537  1
  O  O67  1  0.29075086  0.66272734  0.95026817  1
  O  O68  1  0.79075086  0.83727266  0.04973183  1
  O  O69  1  0.82325863  0.91687121  0.58390475  1
  O  O70  1  0.38726797  0.34477337  0.03360119  1
  O  O71  1  0.70924914  0.33727266  0.04973183  1
  F  F72  1  0.05024408  0.63576460  0.74383314  1
  F  F73  1  0.55024408  0.86423540  0.25616686  1
  F  F74  1  0.94975592  0.13576460  0.75616686  1
  F  F75  1  0.44975592  0.36423540  0.24383314  1
  F  F76  1  0.55024408  0.63576460  0.75616686  1
  F  F77  1  0.94975592  0.36423540  0.25616686  1
  F  F78  1  0.44975592  0.13576460  0.74383314  1
  F  F79  1  0.05024408  0.86423540  0.24383314  1
