# generated using pymatgen
data_SiO2
_symmetry_space_group_name_H-M   'P 1'
_cell_length_a   8.99141929
_cell_length_b   10.89560818
_cell_length_c   10.89560654
_cell_angle_alpha   80.19749159
_cell_angle_beta   65.63067917
_cell_angle_gamma   65.63067578
_symmetry_Int_Tables_number   1
_chemical_formula_structural   SiO2
_chemical_formula_sum   'Si16 O32'
_cell_volume   885.68041271
_cell_formula_units_Z   16
loop_
 _symmetry_equiv_pos_site_id
 _symmetry_equiv_pos_as_xyz
  1  'x, y, z'
loop_
 _atom_site_type_symbol
 _atom_site_label
 _atom_site_symmetry_multiplicity
 _atom_site_fract_x
 _atom_site_fract_y
 _atom_site_fract_z
 _atom_site_occupancy
  Si  Si0  1  0.41506976  0.65902844  0.86076143  1
  Si  Si1  1  0.27583119  0.13923857  0.65902844  1
  Si  Si2  1  0.08493024  0.13923857  0.34097156  1
  Si  Si3  1  0.42590180  0.65902844  0.13923857  1
  Si  Si4  1  0.22416881  0.34097156  0.86076143  1
  Si  Si5  1  0.56513937  0.86076143  0.65902844  1
  Si  Si6  1  0.91506976  0.86076143  0.65902844  1
  Si  Si7  1  0.57409820  0.34097156  0.86076143  1
  Si  Si8  1  0.58493024  0.34097156  0.13923857  1
  Si  Si9  1  0.92590180  0.13923857  0.65902844  1
  Si  Si10  1  0.43486063  0.13923857  0.34097156  1
  Si  Si11  1  0.93486063  0.34097156  0.13923857  1
  Si  Si12  1  0.06513937  0.65902844  0.86076143  1
  Si  Si13  1  0.72416881  0.86076143  0.34097156  1
  Si  Si14  1  0.07409820  0.86076143  0.34097156  1
  Si  Si15  1  0.77583119  0.65902844  0.13923857  1
  O  O16  1  0.87223585  0.50000000  0.15981824  1
  O  O17  1  0.39600373  0.00000000  0.70799455  1
  O  O18  1  0.51348282  0.73651718  0.73651718  1
  O  O19  1  0.72145779  0.86528026  0.69180415  1
  O  O20  1  0.96794691  0.15981824  0.50000000  1
  O  O21  1  0.12776415  0.50000000  0.84018176  1
  O  O22  1  0.39600373  0.70799455  0.00000000  1
  O  O23  1  0.98651718  0.26348282  0.26348282  1
  O  O24  1  0.41326194  0.30819585  0.86528026  1
  O  O25  1  0.60399627  0.29200545  -0.00000000  1
  O  O26  1  0.27854221  0.13471974  0.30819585  1
  O  O27  1  0.01348282  0.73651718  0.73651718  1
  O  O28  1  0.37223585  0.15981824  0.50000000  1
  O  O29  1  0.10399627  -0.00000000  0.29200545  1
  O  O30  1  0.89600373  0.70799455  0.00000000  1
  O  O31  1  0.75000000  0.26348282  0.73651718  1
  O  O32  1  0.53205309  0.50000000  0.84018176  1
  O  O33  1  0.48651718  0.26348282  0.26348282  1
  O  O34  1  0.22145779  0.69180415  0.86528026  1
  O  O35  1  0.91326194  0.86528026  0.30819585  1
  O  O36  1  0.62776415  0.84018176  0.50000000  1
  O  O37  1  0.08673806  0.13471974  0.69180415  1
  O  O38  1  0.03205309  0.84018176  0.50000000  1
  O  O39  1  0.77854221  0.30819585  0.13471974  1
  O  O40  1  0.58673806  0.69180415  0.13471974  1
  O  O41  1  0.25000000  0.73651718  0.26348282  1
  O  O42  1  0.75000000  0.73651718  0.26348282  1
  O  O43  1  0.89600373  0.00000000  0.70799455  1
  O  O44  1  0.25000000  0.26348282  0.73651718  1
  O  O45  1  0.60399627  -0.00000000  0.29200545  1
  O  O46  1  0.46794691  0.50000000  0.15981824  1
  O  O47  1  0.10399627  0.29200545  -0.00000000  1
