# generated using pymatgen
data_Mg3B(OF)3
_symmetry_space_group_name_H-M   'P 1'
_cell_length_a   8.79388391
_cell_length_b   8.79388392
_cell_length_c   3.08871949
_cell_angle_alpha   90.00000000
_cell_angle_beta   90.00000000
_cell_angle_gamma   120.00000319
_symmetry_Int_Tables_number   1
_chemical_formula_structural   Mg3B(OF)3
_chemical_formula_sum   'Mg6 B2 O6 F6'
_cell_volume   206.85715287
_cell_formula_units_Z   2
loop_
 _symmetry_equiv_pos_site_id
 _symmetry_equiv_pos_as_xyz
  1  'x, y, z'
loop_
 _atom_site_type_symbol
 _atom_site_label
 _atom_site_symmetry_multiplicity
 _atom_site_fract_x
 _atom_site_fract_y
 _atom_site_fract_z
 _atom_site_occupancy
  Mg  Mg0  1  0.36711269  0.03052083  0.25000000  1
  Mg  Mg1  1  0.03052083  0.66340814  0.75000000  1
  Mg  Mg2  1  0.63288731  0.96947917  0.75000000  1
  Mg  Mg3  1  0.66340814  0.63288731  0.25000000  1
  Mg  Mg4  1  0.96947917  0.33659186  0.25000000  1
  Mg  Mg5  1  0.33659186  0.36711269  0.75000000  1
  B  B6  1  0.33333300  0.66666700  0.25000000  1
  B  B7  1  0.66666700  0.33333300  0.75000000  1
  O  O8  1  0.44979928  0.84586573  0.25000000  1
  O  O9  1  0.84586573  0.39606646  0.75000000  1
  O  O10  1  0.39606646  0.55020072  0.25000000  1
  O  O11  1  0.60393354  0.44979928  0.75000000  1
  O  O12  1  0.55020072  0.15413427  0.75000000  1
  O  O13  1  0.15413427  0.60393354  0.25000000  1
  F  F14  1  0.70001863  0.78962662  0.75000000  1
  F  F15  1  0.21037338  0.91039200  0.75000000  1
  F  F16  1  0.29998137  0.21037338  0.25000000  1
  F  F17  1  0.91039200  0.70001863  0.25000000  1
  F  F18  1  0.78962662  0.08960800  0.25000000  1
  F  F19  1  0.08960800  0.29998137  0.75000000  1
