# generated using pymatgen
data_SiO2
_symmetry_space_group_name_H-M   'P 1'
_cell_length_a   9.15526976
_cell_length_b   9.15528811
_cell_length_c   12.15717648
_cell_angle_alpha   112.11537198
_cell_angle_beta   112.11537143
_cell_angle_gamma   90.00037255
_symmetry_Int_Tables_number   1
_chemical_formula_structural   SiO2
_chemical_formula_sum   'Si16 O32'
_cell_volume   862.57021910
_cell_formula_units_Z   16
loop_
 _symmetry_equiv_pos_site_id
 _symmetry_equiv_pos_as_xyz
  1  'x, y, z'
loop_
 _atom_site_type_symbol
 _atom_site_label
 _atom_site_symmetry_multiplicity
 _atom_site_fract_x
 _atom_site_fract_y
 _atom_site_fract_z
 _atom_site_occupancy
  Si  Si0  1  0.76428302  0.51002808  0.86666130  1
  Si  Si1  1  0.51004542  0.10235271  0.36666779  1
  Si  Si2  1  0.14337229  0.23572708  0.63334445  1
  Si  Si3  1  0.23572903  0.14337147  0.13334616  1
  Si  Si4  1  0.51002827  0.76428499  0.36666271  1
  Si  Si5  1  0.10235737  0.85665839  0.86668301  1
  Si  Si6  1  0.10235304  0.51004528  0.86666673  1
  Si  Si7  1  0.48995458  0.89764729  0.63333221  1
  Si  Si8  1  0.48997173  0.23571501  0.63333729  1
  Si  Si9  1  0.23571698  0.48997192  0.13333870  1
  Si  Si10  1  0.76427097  0.85662853  0.86665384  1
  Si  Si11  1  0.14334294  0.89764222  0.63331634  1
  Si  Si12  1  0.89764263  0.14334161  0.13331699  1
  Si  Si13  1  0.85665706  0.10235778  0.36668366  1
  Si  Si14  1  0.89764696  0.48995472  0.13333327  1
  Si  Si15  1  0.85662771  0.76427292  0.36665555  1
  O  O16  1  0.45564988  0.91833704  0.33669176  1
  O  O17  1  0.91833734  0.45564996  0.83669193  1
  O  O18  1  0.11890487  0.08165616  0.66327526  1
  O  O19  1  0.24749699  0.30922051  0.11840128  1
  O  O20  1  0.08166266  0.54435004  0.16330807  1
  O  O21  1  0.85533454  0.14466510  0.24999929  1
  O  O22  1  0.54435012  0.08166296  0.66330824  1
  O  O23  1  0.14473658  0.39472890  0.75003595  1
  O  O24  1  0.85526342  0.60527110  0.24996405  1
  O  O25  1  0.08165631  0.11890563  0.16327652  1
  O  O26  1  0.78002491  0.00001756  -0.00002836  1
  O  O27  1  0.21994675  0.50001107  0.00000541  1
  O  O28  1  0.88109513  0.91834384  0.33672474  1
  O  O29  1  0.69078095  0.75250298  0.38159827  1
  O  O30  1  0.60527333  0.85526257  0.74996581  1
  O  O31  1  0.21997509  -0.00001756  0.00002836  1
  O  O32  1  0.39472667  0.14473743  0.25003419  1
  O  O33  1  0.14466546  0.85533490  0.75000071  1
  O  O34  1  0.39469546  0.60529985  0.24999914  1
  O  O35  1  0.30921905  0.24749702  0.61840173  1
  O  O36  1  0.12908634  0.69079776  0.88159674  1
  O  O37  1  0.49998893  0.78005373  0.49999426  1
  O  O38  1  0.30920075  0.87091352  0.61840308  1
  O  O39  1  0.50001107  0.21994627  0.50000574  1
  O  O40  1  0.00001754  0.78002422  0.49997129  1
  O  O41  1  0.75250301  0.69077949  0.88159872  1
  O  O42  1  0.87091366  0.30920224  0.11840326  1
  O  O43  1  0.69079925  0.12908648  0.38159692  1
  O  O44  1  0.60530454  0.39470015  0.75000086  1
  O  O45  1  -0.00001754  0.21997578  0.50002871  1
  O  O46  1  0.91834369  0.88109437  0.83672348  1
  O  O47  1  0.78005325  0.49998893  -0.00000541  1
