# generated using pymatgen
data_NaB3O5
_symmetry_space_group_name_H-M   'P 1'
_cell_length_a   11.26732876
_cell_length_b   10.05376184
_cell_length_c   10.82868788
_cell_angle_alpha   75.75953298
_cell_angle_beta   90.00000000
_cell_angle_gamma   90.00000000
_symmetry_Int_Tables_number   1
_chemical_formula_structural   NaB3O5
_chemical_formula_sum   'Na12 B36 O60'
_cell_volume   1188.97027236
_cell_formula_units_Z   12
loop_
 _symmetry_equiv_pos_site_id
 _symmetry_equiv_pos_as_xyz
  1  'x, y, z'
loop_
 _atom_site_type_symbol
 _atom_site_label
 _atom_site_symmetry_multiplicity
 _atom_site_fract_x
 _atom_site_fract_y
 _atom_site_fract_z
 _atom_site_occupancy
  Na  Na0  1  0.63725106  0.07316308  0.11915891  1
  Na  Na1  1  0.86274894  0.07316308  0.61915891  1
  Na  Na2  1  0.36274894  0.92683692  0.88084109  1
  Na  Na3  1  0.36539370  0.59024642  0.08676974  1
  Na  Na4  1  0.34850861  0.35532231  0.60696620  1
  Na  Na5  1  0.63460630  0.40975358  0.91323026  1
  Na  Na6  1  0.15149139  0.35532231  0.10696620  1
  Na  Na7  1  0.84850861  0.64467769  0.89303380  1
  Na  Na8  1  0.13460630  0.59024642  0.58676974  1
  Na  Na9  1  0.13725106  0.92683692  0.38084109  1
  Na  Na10  1  0.65149139  0.64467769  0.39303380  1
  Na  Na11  1  0.86539370  0.40975358  0.41323026  1
  B  B12  1  0.91127108  0.70396365  0.40880688  1
  B  B13  1  0.17312012  0.41235125  0.37787470  1
  B  B14  1  0.60128384  0.27304917  0.50455312  1
  B  B15  1  0.89871616  0.27304917  0.00455312  1
  B  B16  1  0.67312012  0.58764875  0.12212530  1
  B  B17  1  0.47348813  0.69789885  0.71541348  1
  B  B18  1  0.58872892  0.70396365  0.90880688  1
  B  B19  1  0.69978961  0.91019526  0.90280604  1
  B  B20  1  0.30021039  0.08980474  0.09719396  1
  B  B21  1  0.80021039  0.91019526  0.40280604  1
  B  B22  1  0.08872892  0.29603635  0.59119312  1
  B  B23  1  0.52651187  0.30210115  0.28458652  1
  B  B24  1  0.55475604  0.20203049  0.73545003  1
  B  B25  1  0.30352663  0.61579192  0.34013208  1
  B  B26  1  0.57099366  0.80623095  0.08440728  1
  B  B27  1  0.42900634  0.19376905  0.91559272  1
  B  B28  1  0.32875151  0.87592202  0.63043462  1
  B  B29  1  0.82687988  0.58764875  0.62212530  1
  B  B30  1  0.19647337  0.61579192  0.84013208  1
  B  B31  1  0.07099366  0.19376905  0.41559272  1
  B  B32  1  0.41127108  0.29603635  0.09119312  1
  B  B33  1  0.67124849  0.12407798  0.36956538  1
  B  B34  1  0.82875151  0.12407798  0.86956538  1
  B  B35  1  0.97348813  0.30210115  0.78458652  1
  B  B36  1  0.94524396  0.20203049  0.23545003  1
  B  B37  1  0.44524396  0.79796951  0.26454997  1
  B  B38  1  0.32687988  0.41235125  0.87787470  1
  B  B39  1  0.80352663  0.38420808  0.15986792  1
  B  B40  1  0.10128384  0.72695083  0.99544688  1
  B  B41  1  0.92900634  0.80623095  0.58440728  1
  B  B42  1  0.39871616  0.72695083  0.49544688  1
  B  B43  1  0.19978961  0.08980474  0.59719396  1
  B  B44  1  0.17124849  0.87592202  0.13043462  1
  B  B45  1  0.69647337  0.38420808  0.65986792  1
  B  B46  1  0.05475604  0.79796951  0.76454997  1
  B  B47  1  0.02651187  0.69789885  0.21541348  1
  O  O48  1  0.33508078  0.40431485  0.00482457  1
  O  O49  1  0.17877447  0.61895654  0.96289394  1
  O  O50  1  0.50457109  0.75739703  0.98741075  1
  O  O51  1  0.66553644  0.90127409  0.02477920  1
  O  O52  1  0.87632391  0.68155114  0.67663888  1
  O  O53  1  0.52372153  0.21052006  0.61271290  1
  O  O54  1  0.00457109  0.24260297  0.51258925  1
  O  O55  1  0.67046176  0.81218455  0.84106910  1
  O  O56  1  0.72905829  0.01707729  0.33810124  1
  O  O57  1  0.46231467  0.36796859  0.18127243  1
  O  O58  1  0.23659754  0.51973796  0.30046480  1
  O  O59  1  0.02372153  0.78947994  0.88728710  1
  O  O60  1  0.52714739  0.34054388  0.39664104  1
  O  O61  1  0.83508078  0.59568515  0.49517543  1
  O  O62  1  0.64442133  0.28926812  0.75902315  1
  O  O63  1  0.31877860  0.83398221  0.52141936  1
  O  O64  1  0.77094171  0.01707729  0.83810124  1
  O  O65  1  0.47285261  0.65945612  0.60335896  1
  O  O66  1  0.99542891  0.75739703  0.48741075  1
  O  O67  1  0.22905829  0.98292271  0.16189876  1
  O  O68  1  0.73659754  0.48026204  0.19953520  1
  O  O69  1  0.18122140  0.83398221  0.02141936  1
  O  O70  1  0.85557867  0.28926812  0.25902315  1
  O  O71  1  0.35557867  0.71073188  0.24097685  1
  O  O72  1  0.47627847  0.78947994  0.38728710  1
  O  O73  1  0.16491922  0.40431485  0.50482457  1
  O  O74  1  0.97627847  0.21052006  0.11271290  1
  O  O75  1  0.12367609  0.31844886  0.32336112  1
  O  O76  1  0.82122553  0.38104346  0.03710606  1
  O  O77  1  0.99803899  0.87763541  0.66250202  1
  O  O78  1  0.66491922  0.59568515  0.99517543  1
  O  O79  1  0.59686461  0.19220806  0.27243823  1
  O  O80  1  0.49803899  0.12236459  0.83749798  1
  O  O81  1  0.83446356  0.90127409  0.52477920  1
  O  O82  1  0.68122140  0.16601779  0.47858064  1
  O  O83  1  0.67877447  0.38104346  0.53710606  1
  O  O84  1  0.09686461  0.80779194  0.22756177  1
  O  O85  1  0.17046176  0.18781545  0.65893090  1
  O  O86  1  0.49542891  0.24260297  0.01258925  1
  O  O87  1  0.81877860  0.16601779  0.97858064  1
  O  O88  1  0.50196101  0.87763541  0.16250202  1
  O  O89  1  0.82953824  0.81218455  0.34106910  1
  O  O90  1  0.00196101  0.12236459  0.33749798  1
  O  O91  1  0.14442133  0.71073188  0.74097685  1
  O  O92  1  0.96231467  0.63203141  0.31872757  1
  O  O93  1  0.76340246  0.48026204  0.69953520  1
  O  O94  1  0.40313539  0.80779194  0.72756177  1
  O  O95  1  0.16553644  0.09872591  0.47522080  1
  O  O96  1  0.97285261  0.34054388  0.89664104  1
  O  O97  1  0.90313539  0.19220806  0.77243823  1
  O  O98  1  0.37632391  0.31844886  0.82336112  1
  O  O99  1  0.33446356  0.09872591  0.97522080  1
  O  O100  1  0.27094171  0.98292271  0.66189876  1
  O  O101  1  0.32122553  0.61895654  0.46289394  1
  O  O102  1  0.62367609  0.68155114  0.17663888  1
  O  O103  1  0.26340246  0.51973796  0.80046480  1
  O  O104  1  0.03768533  0.36796859  0.68127243  1
  O  O105  1  0.53768533  0.63203141  0.81872757  1
  O  O106  1  0.02714739  0.65945612  0.10335896  1
  O  O107  1  0.32953824  0.18781545  0.15893090  1
