# generated using pymatgen
data_SiO2
_symmetry_space_group_name_H-M   'P 1'
_cell_length_a   5.05643292
_cell_length_b   13.03528506
_cell_length_c   13.03528359
_cell_angle_alpha   101.68805220
_cell_angle_beta   90.00000000
_cell_angle_gamma   90.00000000
_symmetry_Int_Tables_number   1
_chemical_formula_structural   SiO2
_chemical_formula_sum   'Si16 O32'
_cell_volume   841.36711471
_cell_formula_units_Z   16
loop_
 _symmetry_equiv_pos_site_id
 _symmetry_equiv_pos_as_xyz
  1  'x, y, z'
loop_
 _atom_site_type_symbol
 _atom_site_label
 _atom_site_symmetry_multiplicity
 _atom_site_fract_x
 _atom_site_fract_y
 _atom_site_fract_z
 _atom_site_occupancy
  Si  Si0  1  0.44770268  0.73844832  0.88926800  1
  Si  Si1  1  0.44770268  0.26155168  0.11073200  1
  Si  Si2  1  0.43628277  0.50049347  0.12303353  1
  Si  Si3  1  0.93750077  0.37035082  0.81488673  1
  Si  Si4  1  0.06249923  0.81488673  0.37035082  1
  Si  Si5  1  0.94396369  0.78660264  0.02718680  1
  Si  Si6  1  0.05603631  0.02718680  0.78660264  1
  Si  Si7  1  0.05603631  0.97281320  0.21339736  1
  Si  Si8  1  0.93750077  0.62964918  0.18511227  1
  Si  Si9  1  0.06249923  0.18511227  0.62964918  1
  Si  Si10  1  0.43628277  0.49950653  0.87696647  1
  Si  Si11  1  0.56371723  0.12303353  0.50049347  1
  Si  Si12  1  0.56371723  0.87696647  0.49950653  1
  Si  Si13  1  0.55229732  0.11073200  0.26155168  1
  Si  Si14  1  0.55229732  0.88926800  0.73844832  1
  Si  Si15  1  0.94396369  0.21339736  0.97281320  1
  O  O16  1  0.50000000  0.21183369  0.21183369  1
  O  O17  1  0.85088448  0.06941144  0.23631684  1
  O  O18  1  0.00000000  0.70296907  0.29703093  1
  O  O19  1  0.13989953  0.53230381  0.16221018  1
  O  O20  1  0.14911552  0.23631684  0.06941144  1
  O  O21  1  0.35266344  0.98288376  0.78805478  1
  O  O22  1  0.49760828  0.61416501  0.85534720  1
  O  O23  1  0.00000000  0.10077435  0.89922565  1
  O  O24  1  0.02779362  0.90631134  0.30448486  1
  O  O25  1  0.64733656  0.78805478  0.98288376  1
  O  O26  1  0.14911552  0.76368316  0.93058856  1
  O  O27  1  0.00000000  0.29703093  0.70296907  1
  O  O28  1  0.64089270  0.58498253  0.18675716  1
  O  O29  1  0.50000000  0.78816631  0.78816631  1
  O  O30  1  0.85088448  0.93058856  0.76368316  1
  O  O31  1  0.13989953  0.46769619  0.83778982  1
  O  O32  1  0.49760828  0.38583499  0.14465280  1
  O  O33  1  0.35266344  0.01711624  0.21194522  1
  O  O34  1  0.35910730  0.81324284  0.41501747  1
  O  O35  1  0.97220638  0.69551514  0.09368866  1
  O  O36  1  0.64733656  0.21194522  0.01711624  1
  O  O37  1  0.02779362  0.09368866  0.69551514  1
  O  O38  1  0.97220638  0.30448486  0.90631134  1
  O  O39  1  0.46554589  0.50000000  0.00000000  1
  O  O40  1  0.50239172  0.85534720  0.61416501  1
  O  O41  1  0.86010047  0.16221018  0.53230381  1
  O  O42  1  0.35910730  0.18675716  0.58498253  1
  O  O43  1  0.00000000  0.89922565  0.10077435  1
  O  O44  1  0.50239172  0.14465280  0.38583499  1
  O  O45  1  0.64089270  0.41501747  0.81324284  1
  O  O46  1  0.86010047  0.83778982  0.46769619  1
  O  O47  1  0.53445411  0.00000000  0.50000000  1
