# generated using pymatgen
data_NaSiBO4
_symmetry_space_group_name_H-M   'P 1'
_cell_length_a   14.05524146
_cell_length_b   14.05524146
_cell_length_c   7.78989100
_cell_angle_alpha   90.00000000
_cell_angle_beta   90.00000000
_cell_angle_gamma   119.99999744
_symmetry_Int_Tables_number   1
_chemical_formula_structural   NaSiBO4
_chemical_formula_sum   'Na18 Si18 B18 O72'
_cell_volume   1332.71917185
_cell_formula_units_Z   18
loop_
 _symmetry_equiv_pos_site_id
 _symmetry_equiv_pos_as_xyz
  1  'x, y, z'
loop_
 _atom_site_type_symbol
 _atom_site_label
 _atom_site_symmetry_multiplicity
 _atom_site_fract_x
 _atom_site_fract_y
 _atom_site_fract_z
 _atom_site_occupancy
  Na  Na0  1  0.31143400  0.32576700  0.50269800  1
  Na  Na1  1  0.01433300  0.68856600  0.50269800  1
  Na  Na2  1  0.98730400  0.65404200  0.06724500  1
  Na  Na3  1  0.66673800  0.01269600  0.06724500  1
  Na  Na4  1  0.33326200  0.98730400  0.56724500  1
  Na  Na5  1  0.66666700  0.33333300  0.52317500  1
  Na  Na6  1  0.00000000  0.00000000  0.05288400  1
  Na  Na7  1  0.98566700  0.31143400  0.00269800  1
  Na  Na8  1  0.34595800  0.33326200  0.06724500  1
  Na  Na9  1  0.66666700  0.33333300  0.02497800  1
  Na  Na10  1  0.33333300  0.66666700  0.52497800  1
  Na  Na11  1  0.67423300  0.98566700  0.50269800  1
  Na  Na12  1  0.00000000  0.00000000  0.55288400  1
  Na  Na13  1  0.33333300  0.66666700  0.02317500  1
  Na  Na14  1  0.68856600  0.67423300  0.00269800  1
  Na  Na15  1  0.32576700  0.01433300  0.00269800  1
  Na  Na16  1  0.01269600  0.34595800  0.56724500  1
  Na  Na17  1  0.65404200  0.66673800  0.56724500  1
  Si  Si18  1  0.55109500  0.76323600  0.23968500  1
  Si  Si19  1  0.23676400  0.78785900  0.23968500  1
  Si  Si20  1  0.87877000  0.78249500  0.33388500  1
  Si  Si21  1  0.21214100  0.44890500  0.23968500  1
  Si  Si22  1  0.43137300  0.54557900  0.74599400  1
  Si  Si23  1  0.54557900  0.11420700  0.24599400  1
  Si  Si24  1  0.78785900  0.55109500  0.73968500  1
  Si  Si25  1  0.90372500  0.12123000  0.33388500  1
  Si  Si26  1  0.44890500  0.23676400  0.73968500  1
  Si  Si27  1  0.11420700  0.56862700  0.74599400  1
  Si  Si28  1  0.09627500  0.87877000  0.83388500  1
  Si  Si29  1  0.88579300  0.43137300  0.24599400  1
  Si  Si30  1  0.12123000  0.21750500  0.83388500  1
  Si  Si31  1  0.78249500  0.90372500  0.83388500  1
  Si  Si32  1  0.56862700  0.45442100  0.24599400  1
  Si  Si33  1  0.21750500  0.09627500  0.33388500  1
  Si  Si34  1  0.45442100  0.88579300  0.74599400  1
  Si  Si35  1  0.76323600  0.21214100  0.73968500  1
  B  B36  1  0.56682900  0.45357600  0.86513500  1
  B  B37  1  0.55243700  0.76596000  0.86453600  1
  B  B38  1  0.21858900  0.09855900  0.71029600  1
  B  B39  1  0.09855900  0.87996900  0.21029600  1
  B  B40  1  0.87996900  0.78141100  0.71029600  1
  B  B41  1  0.54642400  0.11325300  0.86513500  1
  B  B42  1  0.78647600  0.55243700  0.36453600  1
  B  B43  1  0.12003100  0.21858900  0.21029600  1
  B  B44  1  0.11325300  0.56682900  0.36513500  1
  B  B45  1  0.45357600  0.88674700  0.36513500  1
  B  B46  1  0.23404000  0.78647600  0.86453600  1
  B  B47  1  0.76596000  0.21352400  0.36453600  1
  B  B48  1  0.90144100  0.12003100  0.71029600  1
  B  B49  1  0.21352400  0.44756300  0.86453600  1
  B  B50  1  0.88674700  0.43317100  0.86513500  1
  B  B51  1  0.44756300  0.23404000  0.36453600  1
  B  B52  1  0.78141100  0.90144100  0.21029600  1
  B  B53  1  0.43317100  0.54642400  0.36513500  1
  O  O54  1  0.65884800  0.45651600  0.76753500  1
  O  O55  1  0.34062900  0.86906600  0.36372500  1
  O  O56  1  0.20258400  0.86466500  0.78784600  1
  O  O57  1  0.87698700  0.86839900  0.81236700  1
  O  O58  1  0.51222400  0.11807600  0.04540800  1
  O  O59  1  0.53899400  0.53436900  0.79222100  1
  O  O60  1  0.47156300  0.34062900  0.86372500  1
  O  O61  1  0.84358200  0.78749300  0.53256100  1
  O  O62  1  0.53436900  0.99537500  0.29222100  1
  O  O63  1  0.86963800  0.19761500  0.78497300  1
  O  O64  1  0.05608900  0.84358200  0.03256100  1
  O  O65  1  0.65937100  0.13093400  0.86372500  1
  O  O66  1  0.27595300  0.82362100  0.04134800  1
  O  O67  1  0.00462500  0.53899400  0.29222100  1
  O  O68  1  0.60585200  0.48777600  0.04540800  1
  O  O69  1  0.86175800  0.32665100  0.36856700  1
  O  O70  1  0.53456700  0.32434800  0.26329300  1
  O  O71  1  0.20013200  0.19350400  0.70707100  1
  O  O72  1  0.78749300  0.94391100  0.03256100  1
  O  O73  1  0.00662800  0.20013200  0.20707100  1
  O  O74  1  0.13036200  0.80238500  0.28497300  1
  O  O75  1  0.19761500  0.32797600  0.28497300  1
  O  O76  1  0.94391100  0.15641800  0.53256100  1
  O  O77  1  0.00858700  0.87698700  0.31236700  1
  O  O78  1  0.46100600  0.46563100  0.29222100  1
  O  O79  1  0.17637900  0.45233200  0.04134800  1
  O  O80  1  0.45233200  0.27595300  0.54134800  1
  O  O81  1  0.82362100  0.54766800  0.54134800  1
  O  O82  1  0.78978000  0.46543300  0.26329300  1
  O  O83  1  0.80649600  0.00662800  0.70707100  1
  O  O84  1  0.15641800  0.21250700  0.03256100  1
  O  O85  1  0.80238500  0.67202400  0.78497300  1
  O  O86  1  0.32797600  0.13036200  0.78497300  1
  O  O87  1  0.86839900  0.99141300  0.31236700  1
  O  O88  1  0.21250700  0.05608900  0.53256100  1
  O  O89  1  0.99141300  0.12301300  0.81236700  1
  O  O90  1  0.67202400  0.86963800  0.28497300  1
  O  O91  1  0.13160100  0.00858700  0.81236700  1
  O  O92  1  0.53510700  0.86175800  0.86856700  1
  O  O93  1  0.54348400  0.20233200  0.76753500  1
  O  O94  1  0.19350400  0.99337200  0.20707100  1
  O  O95  1  0.67334900  0.53510700  0.36856700  1
  O  O96  1  0.46563100  0.00462500  0.79222100  1
  O  O97  1  0.79766800  0.34115200  0.76753500  1
  O  O98  1  0.13093400  0.47156300  0.36372500  1
  O  O99  1  0.52843700  0.65937100  0.36372500  1
  O  O100  1  0.48777600  0.88192400  0.54540800  1
  O  O101  1  0.99537500  0.46100600  0.79222100  1
  O  O102  1  0.21022000  0.53456700  0.76329300  1
  O  O103  1  0.66208000  0.79741600  0.78784600  1
  O  O104  1  0.33792000  0.20258400  0.28784600  1
  O  O105  1  0.99337200  0.79986800  0.70707100  1
  O  O106  1  0.32665100  0.46489300  0.86856700  1
  O  O107  1  0.45651600  0.79766800  0.26753500  1
  O  O108  1  0.12301300  0.13160100  0.31236700  1
  O  O109  1  0.34115200  0.54348400  0.26753500  1
  O  O110  1  0.46543300  0.67565200  0.76329300  1
  O  O111  1  0.32434800  0.78978000  0.76329300  1
  O  O112  1  0.20233200  0.65884800  0.26753500  1
  O  O113  1  0.72404700  0.17637900  0.54134800  1
  O  O114  1  0.54766800  0.72404700  0.04134800  1
  O  O115  1  0.39414800  0.51222400  0.54540800  1
  O  O116  1  0.86906600  0.52843700  0.86372500  1
  O  O117  1  0.86466500  0.66208000  0.28784600  1
  O  O118  1  0.67565200  0.21022000  0.26329300  1
  O  O119  1  0.11807600  0.60585200  0.54540800  1
  O  O120  1  0.88192400  0.39414800  0.04540800  1
  O  O121  1  0.79741600  0.13533500  0.28784600  1
  O  O122  1  0.13824200  0.67334900  0.86856700  1
  O  O123  1  0.13533500  0.33792000  0.78784600  1
  O  O124  1  0.46489300  0.13824200  0.36856700  1
  O  O125  1  0.79986800  0.80649600  0.20707100  1
