# generated using pymatgen
data_SiO2
_symmetry_space_group_name_H-M   'P 1'
_cell_length_a   4.71155729
_cell_length_b   8.09259956
_cell_length_c   8.53061019
_cell_angle_alpha   90.00000000
_cell_angle_beta   90.00000000
_cell_angle_gamma   90.00000000
_symmetry_Int_Tables_number   1
_chemical_formula_structural   SiO2
_chemical_formula_sum   'Si8 O16'
_cell_volume   325.26147302
_cell_formula_units_Z   8
loop_
 _symmetry_equiv_pos_site_id
 _symmetry_equiv_pos_as_xyz
  1  'x, y, z'
loop_
 _atom_site_type_symbol
 _atom_site_label
 _atom_site_symmetry_multiplicity
 _atom_site_fract_x
 _atom_site_fract_y
 _atom_site_fract_z
 _atom_site_occupancy
  Si  Si0  1  0.14397041  0.06295585  0.15908057  1
  Si  Si1  1  0.14397041  0.43704415  0.65908057  1
  Si  Si2  1  0.64397041  0.56295585  0.84091943  1
  Si  Si3  1  0.35602959  0.43704415  0.15908057  1
  Si  Si4  1  0.85602959  0.56295585  0.34091943  1
  Si  Si5  1  0.85602959  0.93704415  0.84091943  1
  Si  Si6  1  0.64397041  0.93704415  0.34091943  1
  Si  Si7  1  0.35602959  0.06295585  0.65908057  1
  O  O8  1  0.58830851  0.05423892  0.79900856  1
  O  O9  1  0.58830851  0.44576108  0.29900856  1
  O  O10  1  0.41169049  0.55423892  0.70099144  1
  O  O11  1  0.25000000  0.25000000  0.63933330  1
  O  O12  1  0.08830851  0.55423892  0.20099144  1
  O  O13  1  0.41169049  0.94576108  0.20099144  1
  O  O14  1  0.91169149  0.05423892  0.29900856  1
  O  O15  1  0.00000000  0.50000000  0.50000000  1
  O  O16  1  0.75000000  0.75000000  0.36066670  1
  O  O17  1  0.75000000  0.75000000  0.86066670  1
  O  O18  1  0.91169149  0.44576108  0.79900856  1
  O  O19  1  0.50000000  0.50000000  0.00000000  1
  O  O20  1  0.25000000  0.25000000  0.13933330  1
  O  O21  1  0.08830851  0.94576108  0.70099144  1
  O  O22  1  0.00000000  0.00000000  0.00000000  1
  O  O23  1  0.50000000  0.00000000  0.50000000  1
