# generated using pymatgen
data_NaSiBO4
_symmetry_space_group_name_H-M   'P 1'
_cell_length_a   7.66444981
_cell_length_b   7.94917185
_cell_length_c   13.89137874
_cell_angle_alpha   90.07743021
_cell_angle_beta   90.00000000
_cell_angle_gamma   90.00000000
_symmetry_Int_Tables_number   1
_chemical_formula_structural   NaSiBO4
_chemical_formula_sum   'Na12 Si12 B12 O48'
_cell_volume   846.34576633
_cell_formula_units_Z   12
loop_
 _symmetry_equiv_pos_site_id
 _symmetry_equiv_pos_as_xyz
  1  'x, y, z'
loop_
 _atom_site_type_symbol
 _atom_site_label
 _atom_site_symmetry_multiplicity
 _atom_site_fract_x
 _atom_site_fract_y
 _atom_site_fract_z
 _atom_site_occupancy
  Na  Na0  1  0.98719125  0.75256366  0.75002901  1
  Na  Na1  1  0.48719125  0.74743634  0.74997099  1
  Na  Na2  1  0.53109423  0.27020921  0.91185211  1
  Na  Na3  1  0.03109423  0.22979079  0.58814789  1
  Na  Na4  1  0.46286585  0.27144669  0.56754853  1
  Na  Na5  1  0.53713415  0.72855331  0.43245147  1
  Na  Na6  1  0.51280875  0.25256366  0.25002901  1
  Na  Na7  1  0.96286585  0.22855331  0.93245147  1
  Na  Na8  1  0.03713415  0.77144669  0.06754853  1
  Na  Na9  1  0.46890577  0.72979079  0.08814789  1
  Na  Na10  1  0.01280875  0.24743634  0.24997099  1
  Na  Na11  1  0.96890577  0.77020921  0.41185211  1
  Si  Si12  1  0.20981990  0.07961619  0.76224498  1
  Si  Si13  1  0.70434584  0.93214065  0.59335953  1
  Si  Si14  1  0.70981990  0.42038381  0.73775502  1
  Si  Si15  1  0.79018010  0.92038381  0.23775502  1
  Si  Si16  1  0.29671456  0.10764856  0.08105399  1
  Si  Si17  1  0.29018010  0.57961619  0.26224498  1
  Si  Si18  1  0.79565416  0.43214065  0.09335953  1
  Si  Si19  1  0.70328544  0.89235144  0.91894601  1
  Si  Si20  1  0.20328544  0.60764856  0.58105399  1
  Si  Si21  1  0.29565416  0.06785935  0.40664047  1
  Si  Si22  1  0.79671456  0.39235144  0.41894601  1
  Si  Si23  1  0.20434584  0.56785935  0.90664047  1
  B  B24  1  0.67233008  0.10095378  0.08125687  1
  B  B25  1  0.17070611  0.92133486  0.23883146  1
  B  B26  1  0.17233008  0.39904622  0.41874313  1
  B  B27  1  0.32681179  0.93331683  0.59073787  1
  B  B28  1  0.82766992  0.60095378  0.58125687  1
  B  B29  1  0.32929389  0.42133486  0.73883146  1
  B  B30  1  0.32766992  0.89904622  0.91874313  1
  B  B31  1  0.82929389  0.07866514  0.76116854  1
  B  B32  1  0.17318821  0.43331683  0.09073787  1
  B  B33  1  0.82681179  0.56668317  0.90926213  1
  B  B34  1  0.67070611  0.57866514  0.26116854  1
  B  B35  1  0.67318821  0.06668317  0.40926213  1
  O  O36  1  0.33138240  0.44769421  0.84337825  1
  O  O37  1  0.72178086  0.73525929  0.62411404  1
  O  O38  1  0.25367269  0.25828272  0.71226326  1
  O  O39  1  0.74871628  0.44843792  0.97945138  1
  O  O40  1  0.50947091  0.42823360  0.70071281  1
  O  O41  1  0.66861760  0.55230579  0.15662175  1
  O  O42  1  0.99457763  0.49010057  0.11333111  1
  O  O43  1  0.75128372  0.94843792  0.47945138  1
  O  O44  1  0.49457763  0.00989943  0.38666889  1
  O  O45  1  0.16490458  0.54539060  0.35445780  1
  O  O46  1  0.50417427  0.83031090  0.93340478  1
  O  O47  1  0.49582573  0.16968910  0.06659522  1
  O  O48  1  0.49052909  0.57176640  0.29928719  1
  O  O49  1  0.50542237  0.99010057  0.61333111  1
  O  O50  1  0.25377669  0.94596871  0.01342707  1
  O  O51  1  0.22178086  0.76474071  0.87588596  1
  O  O52  1  0.00417427  0.66968910  0.56659522  1
  O  O53  1  0.83041319  0.73788277  0.94938153  1
  O  O54  1  0.77821914  0.23525929  0.12411404  1
  O  O55  1  0.75377669  0.55403129  0.48657293  1
  O  O56  1  0.00542237  0.50989943  0.88666889  1
  O  O57  1  0.77327222  0.06569968  0.31982663  1
  O  O58  1  0.33041319  0.76211723  0.55061847  1
  O  O59  1  0.83138240  0.05230579  0.65662175  1
  O  O60  1  0.75367269  0.24171728  0.78773674  1
  O  O61  1  0.99582573  0.33031090  0.43340478  1
  O  O62  1  0.24632731  0.75828272  0.21226326  1
  O  O63  1  0.76911105  0.44206185  0.30679514  1
  O  O64  1  0.26911105  0.05793815  0.19320486  1
  O  O65  1  0.22672778  0.93430032  0.68017337  1
  O  O66  1  0.00947091  0.07176640  0.79928719  1
  O  O67  1  0.99052909  0.92823360  0.20071281  1
  O  O68  1  0.27821914  0.26474071  0.37588596  1
  O  O69  1  0.66490458  0.95460940  0.14554220  1
  O  O70  1  0.27327222  0.43430032  0.18017337  1
  O  O71  1  0.66958681  0.23788277  0.44938153  1
  O  O72  1  0.24622331  0.44596871  0.51342707  1
  O  O73  1  0.25128372  0.55156208  0.02054862  1
  O  O74  1  0.83509542  0.45460940  0.64554220  1
  O  O75  1  0.72672778  0.56569968  0.81982663  1
  O  O76  1  0.74622331  0.05403129  0.98657293  1
  O  O77  1  0.74632731  0.74171728  0.28773674  1
  O  O78  1  0.16861760  0.94769421  0.34337825  1
  O  O79  1  0.24871628  0.05156208  0.52054862  1
  O  O80  1  0.33509542  0.04539060  0.85445780  1
  O  O81  1  0.23088895  0.55793815  0.69320486  1
  O  O82  1  0.73088895  0.94206185  0.80679514  1
  O  O83  1  0.16958681  0.26211723  0.05061847  1
