# generated using pymatgen
data_Na3SO4F
_symmetry_space_group_name_H-M   'P 1'
_cell_length_a   7.03592300
_cell_length_b   11.59844800
_cell_length_c   18.29677074
_cell_angle_alpha   72.40595465
_cell_angle_beta   90.00000000
_cell_angle_gamma   90.00000000
_symmetry_Int_Tables_number   1
_chemical_formula_structural   Na3SO4F
_chemical_formula_sum   'Na36 S12 O48 F12'
_cell_volume   1423.27722884
_cell_formula_units_Z   12
loop_
 _symmetry_equiv_pos_site_id
 _symmetry_equiv_pos_as_xyz
  1  'x, y, z'
loop_
 _atom_site_type_symbol
 _atom_site_label
 _atom_site_symmetry_multiplicity
 _atom_site_fract_x
 _atom_site_fract_y
 _atom_site_fract_z
 _atom_site_occupancy
  Na  Na0  1  0.97770400  0.55089400  0.22657600  1
  Na  Na1  1  0.25000000  0.69934100  0.34902100  1
  Na  Na2  1  0.52298000  0.70850600  0.02986100  1
  Na  Na3  1  0.02229600  0.44910600  0.77342400  1
  Na  Na4  1  0.52229600  0.55089400  0.22657600  1
  Na  Na5  1  0.75000000  0.87340800  0.88366400  1
  Na  Na6  1  0.50039600  0.73304300  0.75540300  1
  Na  Na7  1  0.00039600  0.26695700  0.24459700  1
  Na  Na8  1  0.25000000  0.56224500  0.89357500  1
  Na  Na9  1  0.99960400  0.73304300  0.75540300  1
  Na  Na10  1  0.25000000  0.18430700  0.85154800  1
  Na  Na11  1  0.97702000  0.70850600  0.02986100  1
  Na  Na12  1  0.51736300  0.18985500  0.53477000  1
  Na  Na13  1  0.25000000  0.12659200  0.11633600  1
  Na  Na14  1  0.97270300  0.02969200  0.72092800  1
  Na  Na15  1  0.48263700  0.81014500  0.46523000  1
  Na  Na16  1  0.00000000  0.50000000  0.50000000  1
  Na  Na17  1  0.75000000  0.43775500  0.10642500  1
  Na  Na18  1  0.50000000  0.00000000  0.00000000  1
  Na  Na19  1  0.47702000  0.29149400  0.97013900  1
  Na  Na20  1  0.75000000  0.30065900  0.65097900  1
  Na  Na21  1  0.47770400  0.44910600  0.77342400  1
  Na  Na22  1  0.25000000  0.09507600  0.39400100  1
  Na  Na23  1  0.98263700  0.18985500  0.53477000  1
  Na  Na24  1  0.01736300  0.81014500  0.46523000  1
  Na  Na25  1  0.50000000  0.50000000  0.50000000  1
  Na  Na26  1  0.75000000  0.90492400  0.60599900  1
  Na  Na27  1  0.52729700  0.02969200  0.72092800  1
  Na  Na28  1  0.75000000  0.39753800  0.38521000  1
  Na  Na29  1  0.47270300  0.97030800  0.27907200  1
  Na  Na30  1  0.75000000  0.81569300  0.14845200  1
  Na  Na31  1  0.49960400  0.26695700  0.24459700  1
  Na  Na32  1  0.25000000  0.60246200  0.61479000  1
  Na  Na33  1  0.02729700  0.97030800  0.27907200  1
  Na  Na34  1  0.00000000  0.00000000  0.00000000  1
  Na  Na35  1  0.02298000  0.29149400  0.97013900  1
  S  S36  1  0.75000000  0.19277600  0.83826200  1
  S  S37  1  0.75000000  0.54344300  0.91484700  1
  S  S38  1  0.75000000  0.70222400  0.34643600  1
  S  S39  1  0.75000000  0.61214200  0.62527400  1
  S  S40  1  0.25000000  0.38785800  0.37472600  1
  S  S41  1  0.75000000  0.08281400  0.40284200  1
  S  S42  1  0.75000000  0.11939600  0.13030600  1
  S  S43  1  0.25000000  0.29777600  0.65356400  1
  S  S44  1  0.25000000  0.80722400  0.16173800  1
  S  S45  1  0.25000000  0.91718600  0.59715800  1
  S  S46  1  0.25000000  0.88060400  0.86969400  1
  S  S47  1  0.25000000  0.45655700  0.08515300  1
  O  O48  1  0.75000000  0.72163800  0.55638700  1
  O  O49  1  0.25000000  0.68384400  0.21956900  1
  O  O50  1  0.75000000  0.00034700  0.19225600  1
  O  O51  1  0.42283400  0.82125500  0.11266800  1
  O  O52  1  0.75000000  0.96197100  0.46262700  1
  O  O53  1  0.92362400  0.09501300  0.35407100  1
  O  O54  1  0.07637600  0.90498700  0.64592900  1
  O  O55  1  0.07716600  0.82125500  0.11266800  1
  O  O56  1  0.75000000  0.42246100  0.97548000  1
  O  O57  1  0.07621500  0.22438900  0.65278300  1
  O  O58  1  0.25000000  0.90153300  0.20194100  1
  O  O59  1  0.42378500  0.22438900  0.65278300  1
  O  O60  1  0.25000000  0.99965300  0.80774400  1
  O  O61  1  0.57702600  0.12808200  0.08176800  1
  O  O62  1  0.07666200  0.44634400  0.13363800  1
  O  O63  1  0.25000000  0.35862400  0.04770700  1
  O  O64  1  0.57716600  0.17874500  0.88733200  1
  O  O65  1  0.75000000  0.65053500  0.69625300  1
  O  O66  1  0.57621500  0.77561100  0.34721700  1
  O  O67  1  0.75000000  0.18036500  0.44049600  1
  O  O68  1  0.25000000  0.81963500  0.55950400  1
  O  O69  1  0.75000000  0.21965900  0.16581800  1
  O  O70  1  0.25000000  0.03802900  0.53737300  1
  O  O71  1  0.25000000  0.40529400  0.58412700  1
  O  O72  1  0.42362400  0.90498700  0.64592900  1
  O  O73  1  0.25000000  0.27836200  0.44361300  1
  O  O74  1  0.92283400  0.17874500  0.88733200  1
  O  O75  1  0.42297400  0.87191800  0.91823200  1
  O  O76  1  0.75000000  0.59470600  0.41587300  1
  O  O77  1  0.92297400  0.12808200  0.08176800  1
  O  O78  1  0.07715100  0.46286200  0.37501000  1
  O  O79  1  0.25000000  0.34946500  0.30374700  1
  O  O80  1  0.25000000  0.33629200  0.72450200  1
  O  O81  1  0.42333800  0.44634400  0.13363800  1
  O  O82  1  0.92333800  0.55365600  0.86636200  1
  O  O83  1  0.07702600  0.87191800  0.91823200  1
  O  O84  1  0.75000000  0.66370800  0.27549800  1
  O  O85  1  0.57637600  0.09501300  0.35407100  1
  O  O86  1  0.92284900  0.53713800  0.62499000  1
  O  O87  1  0.75000000  0.09846700  0.79805900  1
  O  O88  1  0.25000000  0.57753900  0.02452000  1
  O  O89  1  0.25000000  0.78034100  0.83418200  1
  O  O90  1  0.92378500  0.77561100  0.34721700  1
  O  O91  1  0.57666200  0.55365600  0.86636200  1
  O  O92  1  0.42284900  0.46286200  0.37501000  1
  O  O93  1  0.75000000  0.64137600  0.95229300  1
  O  O94  1  0.75000000  0.31615600  0.78043100  1
  O  O95  1  0.57715100  0.53713800  0.62499000  1
  F  F96  1  0.25000000  0.37333700  0.87542500  1
  F  F97  1  0.25000000  0.13683500  0.23727000  1
  F  F98  1  0.25000000  0.12385300  0.98955600  1
  F  F99  1  0.75000000  0.39475600  0.25781100  1
  F  F100  1  0.75000000  0.09306100  0.62203100  1
  F  F101  1  0.25000000  0.60524400  0.74218900  1
  F  F102  1  0.75000000  0.87614700  0.01044400  1
  F  F103  1  0.75000000  0.62666300  0.12457500  1
  F  F104  1  0.75000000  0.86316500  0.76273000  1
  F  F105  1  0.25000000  0.90693900  0.37796900  1
  F  F106  1  0.25000000  0.64351300  0.47896800  1
  F  F107  1  0.75000000  0.35648700  0.52103200  1
