# generated using pymatgen
data_Mg2B2O5
_symmetry_space_group_name_H-M   'P 1'
_cell_length_a   3.10207914
_cell_length_b   9.20099118
_cell_length_c   12.38369389
_cell_angle_alpha   75.18527675
_cell_angle_beta   90.00000000
_cell_angle_gamma   90.00000000
_symmetry_Int_Tables_number   1
_chemical_formula_structural   Mg2B2O5
_chemical_formula_sum   'Mg8 B8 O20'
_cell_volume   341.70815429
_cell_formula_units_Z   4
loop_
 _symmetry_equiv_pos_site_id
 _symmetry_equiv_pos_as_xyz
  1  'x, y, z'
loop_
 _atom_site_type_symbol
 _atom_site_label
 _atom_site_symmetry_multiplicity
 _atom_site_fract_x
 _atom_site_fract_y
 _atom_site_fract_z
 _atom_site_occupancy
  Mg  Mg0  1  0.22834113  0.85210156  0.64574106  1
  Mg  Mg1  1  0.77165887  0.14789844  0.35425894  1
  Mg  Mg2  1  0.27165887  0.85210156  0.14574106  1
  Mg  Mg3  1  0.75609137  0.60288859  0.56237145  1
  Mg  Mg4  1  0.24390863  0.39711141  0.43762855  1
  Mg  Mg5  1  0.74390863  0.60288859  0.06237145  1
  Mg  Mg6  1  0.72834113  0.14789844  0.85425894  1
  Mg  Mg7  1  0.25609137  0.39711141  0.93762855  1
  B  B8  1  0.18728418  0.85735918  0.90909729  1
  B  B9  1  0.31271582  0.85735918  0.40909729  1
  B  B10  1  0.81271582  0.14264082  0.09090271  1
  B  B11  1  0.16598721  0.33234371  0.19011710  1
  B  B12  1  0.83401279  0.66765629  0.80988290  1
  B  B13  1  0.66598721  0.66765629  0.30988290  1
  B  B14  1  0.33401279  0.33234371  0.69011710  1
  B  B15  1  0.68728418  0.14264082  0.59090271  1
  O  O16  1  0.72834601  0.67761104  0.70218395  1
  O  O17  1  0.43231799  0.79746304  0.31880118  1
  O  O18  1  0.77165399  0.67761104  0.20218395  1
  O  O19  1  0.06768201  0.79746304  0.81880118  1
  O  O20  1  0.72971857  0.99303782  0.61276569  1
  O  O21  1  0.25210544  0.44553555  0.59769593  1
  O  O22  1  0.22971857  0.00696218  0.88723431  1
  O  O23  1  0.25267891  0.75908686  0.51133162  1
  O  O24  1  0.27165399  0.32238896  0.29781605  1
  O  O25  1  0.77028143  0.99303782  0.11276569  1
  O  O26  1  0.56768201  0.20253696  0.68119882  1
  O  O27  1  0.24732109  0.75908686  0.01133162  1
  O  O28  1  0.74789456  0.55446445  0.40230407  1
  O  O29  1  0.93231799  0.20253696  0.18119882  1
  O  O30  1  0.24789456  0.44553555  0.09769593  1
  O  O31  1  0.75267891  0.24091314  0.98866838  1
  O  O32  1  0.75210544  0.55446445  0.90230407  1
  O  O33  1  0.22834601  0.32238896  0.79781605  1
  O  O34  1  0.27028143  0.00696218  0.38723431  1
  O  O35  1  0.74732109  0.24091314  0.48866838  1
