# generated using pymatgen
data_SiO2
_symmetry_space_group_name_H-M   'P 1'
_cell_length_a   8.58754618
_cell_length_b   12.63323038
_cell_length_c   12.63322905
_cell_angle_alpha   109.46973569
_cell_angle_beta   90.00000000
_cell_angle_gamma   90.00000000
_symmetry_Int_Tables_number   1
_chemical_formula_structural   SiO2
_chemical_formula_sum   'Si24 O48'
_cell_volume   1292.18766183
_cell_formula_units_Z   24
loop_
 _symmetry_equiv_pos_site_id
 _symmetry_equiv_pos_as_xyz
  1  'x, y, z'
loop_
 _atom_site_type_symbol
 _atom_site_label
 _atom_site_symmetry_multiplicity
 _atom_site_fract_x
 _atom_site_fract_y
 _atom_site_fract_z
 _atom_site_occupancy
  Si  Si0  1  0.06363240  0.37867841  0.23885673  1
  Si  Si1  1  0.43636760  0.76114327  0.62132159  1
  Si  Si2  1  0.93636934  0.38199685  0.00442835  1
  Si  Si3  1  0.93636934  0.99557165  0.61800315  1
  Si  Si4  1  0.93636760  0.23885673  0.37867841  1
  Si  Si5  1  0.06363066  0.61800315  0.99557165  1
  Si  Si6  1  0.56363240  0.62132159  0.76114327  1
  Si  Si7  1  0.06363066  0.00442835  0.38199685  1
  Si  Si8  1  0.43679824  0.37862942  0.62137058  1
  Si  Si9  1  0.43672562  0.22834535  0.77165465  1
  Si  Si10  1  0.56320176  0.62137058  0.37862942  1
  Si  Si11  1  0.56327438  0.77165465  0.22834535  1
  Si  Si12  1  0.56363066  0.38199685  0.00442835  1
  Si  Si13  1  0.43636934  0.00442835  0.38199685  1
  Si  Si14  1  0.93679824  0.62137058  0.37862942  1
  Si  Si15  1  0.06363240  0.76114327  0.62132159  1
  Si  Si16  1  0.93672562  0.77165465  0.22834535  1
  Si  Si17  1  0.56363066  0.99557165  0.61800315  1
  Si  Si18  1  0.43636934  0.61800315  0.99557165  1
  Si  Si19  1  0.56363240  0.23885673  0.37867841  1
  Si  Si20  1  0.06320176  0.37862942  0.62137058  1
  Si  Si21  1  0.06327438  0.22834535  0.77165465  1
  Si  Si22  1  0.93636760  0.62132159  0.76114327  1
  Si  Si23  1  0.43636760  0.37867841  0.23885673  1
  O  O24  1  0.00043401  0.11489249  0.36066823  1
  O  O25  1  0.00387282  0.49648970  0.32537736  1
  O  O26  1  0.00965464  0.30352549  0.69647451  1
  O  O27  1  0.50387282  0.50351030  0.67462264  1
  O  O28  1  0.50465622  0.10354351  0.71865446  1
  O  O29  1  0.50000000  0.00000000  0.50000000  1
  O  O30  1  0.49956599  0.11489249  0.36066823  1
  O  O31  1  0.50465622  0.28134554  0.89645649  1
  O  O32  1  0.49034536  0.30352549  0.69647451  1
  O  O33  1  0.99534378  0.10354351  0.71865446  1
  O  O34  1  0.25000000  0.37766774  0.23737225  1
  O  O35  1  0.99534378  0.28134554  0.89645649  1
  O  O36  1  -0.00000000  0.27777334  0.27777334  1
  O  O37  1  0.49956599  0.63933177  0.88510751  1
  O  O38  1  -0.00000000  0.72222666  0.72222666  1
  O  O39  1  0.99612718  0.50351030  0.67462264  1
  O  O40  1  0.25000000  0.00685716  0.38548299  1
  O  O41  1  0.25000000  0.61451701  0.99314284  1
  O  O42  1  0.50000000  0.72222666  0.72222666  1
  O  O43  1  0.99034536  0.69647451  0.30352549  1
  O  O44  1  0.25000000  0.22435641  0.77564359  1
  O  O45  1  0.49534378  0.89645649  0.28134554  1
  O  O46  1  -0.00043401  0.36066823  0.11489249  1
  O  O47  1  0.49612718  0.49648970  0.32537736  1
  O  O48  1  0.75000000  0.62233226  0.76262775  1
  O  O49  1  0.75000000  0.61731007  0.38268993  1
  O  O50  1  0.00465622  0.89645649  0.28134554  1
  O  O51  1  0.75000000  0.23737225  0.37766774  1
  O  O52  1  0.50965464  0.69647451  0.30352549  1
  O  O53  1  0.75000000  0.99314284  0.61451701  1
  O  O54  1  0.75000000  0.38548299  0.00685716  1
  O  O55  1  0.50043401  0.88510751  0.63933177  1
  O  O56  1  0.00387282  0.67462264  0.50351030  1
  O  O57  1  0.75000000  0.77564359  0.22435641  1
  O  O58  1  0.50000000  0.50000000  0.00000000  1
  O  O59  1  0.25000000  0.38268993  0.61731007  1
  O  O60  1  0.50000000  0.27777334  0.27777334  1
  O  O61  1  0.50387282  0.32537736  0.49648970  1
  O  O62  1  -0.00000000  0.00000000  0.50000000  1
  O  O63  1  0.25000000  0.76262775  0.62233226  1
  O  O64  1  0.00465622  0.71865446  0.10354351  1
  O  O65  1  0.99612718  0.32537736  0.49648970  1
  O  O66  1  -0.00043401  0.88510751  0.63933177  1
  O  O67  1  0.50043401  0.36066823  0.11489249  1
  O  O68  1  0.49612718  0.67462264  0.50351030  1
  O  O69  1  0.00043401  0.63933177  0.88510751  1
  O  O70  1  0.49534378  0.71865446  0.10354351  1
  O  O71  1  -0.00000000  0.50000000  0.00000000  1
