# generated using pymatgen
data_SiO2
_symmetry_space_group_name_H-M   'P 1'
_cell_length_a   11.99396895
_cell_length_b   10.28546043
_cell_length_c   10.06611816
_cell_angle_alpha   90.00000000
_cell_angle_beta   90.00000000
_cell_angle_gamma   90.00000000
_symmetry_Int_Tables_number   1
_chemical_formula_structural   SiO2
_chemical_formula_sum   'Si20 O40'
_cell_volume   1241.79149751
_cell_formula_units_Z   20
loop_
 _symmetry_equiv_pos_site_id
 _symmetry_equiv_pos_as_xyz
  1  'x, y, z'
loop_
 _atom_site_type_symbol
 _atom_site_label
 _atom_site_symmetry_multiplicity
 _atom_site_fract_x
 _atom_site_fract_y
 _atom_site_fract_z
 _atom_site_occupancy
  Si  Si0  1  0.28504296  0.10612145  0.15102865  1
  Si  Si1  1  0.28504296  0.89387855  0.34897135  1
  Si  Si2  1  0.71495704  0.10612145  0.34897135  1
  Si  Si3  1  0.71495704  0.89387855  0.15102865  1
  Si  Si4  1  0.71495704  0.89387855  0.84897135  1
  Si  Si5  1  0.71495704  0.10612145  0.65102865  1
  Si  Si6  1  0.28504296  0.89387855  0.65102865  1
  Si  Si7  1  0.28504296  0.10612145  0.84897135  1
  Si  Si8  1  0.78504296  0.60612145  0.15102865  1
  Si  Si9  1  0.78504296  0.39387855  0.34897135  1
  Si  Si10  1  0.21495704  0.60612145  0.34897135  1
  Si  Si11  1  0.21495704  0.39387855  0.15102865  1
  Si  Si12  1  0.21495704  0.39387855  0.84897135  1
  Si  Si13  1  0.21495704  0.60612145  0.65102865  1
  Si  Si14  1  0.78504296  0.39387855  0.65102865  1
  Si  Si15  1  0.78504296  0.60612145  0.84897135  1
  Si  Si16  1  0.00000000  0.50000000  0.25000000  1
  Si  Si17  1  0.00000000  0.50000000  0.75000000  1
  Si  Si18  1  0.50000000  -0.00000000  0.25000000  1
  Si  Si19  1  0.50000000  -0.00000000  0.75000000  1
  O  O20  1  0.41960605  0.09003587  0.15932584  1
  O  O21  1  0.41960605  0.90996413  0.34067416  1
  O  O22  1  0.58039395  0.09003587  0.34067416  1
  O  O23  1  0.58039395  0.90996413  0.15932584  1
  O  O24  1  0.58039395  0.90996413  0.84067416  1
  O  O25  1  0.58039395  0.09003587  0.65932584  1
  O  O26  1  0.41960605  0.90996413  0.65932584  1
  O  O27  1  0.41960605  0.09003587  0.84067416  1
  O  O28  1  0.91960605  0.59003587  0.15932584  1
  O  O29  1  0.91960605  0.40996413  0.34067416  1
  O  O30  1  0.08039395  0.59003587  0.34067416  1
  O  O31  1  0.08039395  0.40996413  0.15932584  1
  O  O32  1  0.08039395  0.40996413  0.84067416  1
  O  O33  1  0.08039395  0.59003587  0.65932584  1
  O  O34  1  0.91960605  0.40996413  0.65932584  1
  O  O35  1  0.91960605  0.59003587  0.84067416  1
  O  O36  1  0.24438904  0.08218967  0.00000000  1
  O  O37  1  0.24438904  0.91781033  0.50000000  1
  O  O38  1  0.75561096  0.08218967  0.50000000  1
  O  O39  1  0.75561096  0.91781033  0.00000000  1
  O  O40  1  0.74438904  0.58218967  0.00000000  1
  O  O41  1  0.74438904  0.41781033  0.50000000  1
  O  O42  1  0.25561096  0.58218967  0.50000000  1
  O  O43  1  0.25561096  0.41781033  0.00000000  1
  O  O44  1  0.22942905  -0.00000000  0.25000000  1
  O  O45  1  0.77057095  -0.00000000  0.25000000  1
  O  O46  1  0.77057095  -0.00000000  0.75000000  1
  O  O47  1  0.22942905  -0.00000000  0.75000000  1
  O  O48  1  0.72942905  0.50000000  0.25000000  1
  O  O49  1  0.27057095  0.50000000  0.25000000  1
  O  O50  1  0.27057095  0.50000000  0.75000000  1
  O  O51  1  0.72942905  0.50000000  0.75000000  1
  O  O52  1  0.25000000  0.25000000  0.19790752  1
  O  O53  1  0.25000000  0.75000000  0.30209248  1
  O  O54  1  0.75000000  0.25000000  0.30209248  1
  O  O55  1  0.75000000  0.75000000  0.19790752  1
  O  O56  1  0.75000000  0.75000000  0.80209248  1
  O  O57  1  0.75000000  0.25000000  0.69790752  1
  O  O58  1  0.25000000  0.75000000  0.69790752  1
  O  O59  1  0.25000000  0.25000000  0.80209248  1
