# generated using pymatgen
data_SiO2
_symmetry_space_group_name_H-M   'P 1'
_cell_length_a   8.79860408
_cell_length_b   8.79860408
_cell_length_c   19.22255767
_cell_angle_alpha   90.00000000
_cell_angle_beta   90.00000000
_cell_angle_gamma   117.30194267
_symmetry_Int_Tables_number   1
_chemical_formula_structural   SiO2
_chemical_formula_sum   'Si24 O48'
_cell_volume   1322.34827878
_cell_formula_units_Z   24
loop_
 _symmetry_equiv_pos_site_id
 _symmetry_equiv_pos_as_xyz
  1  'x, y, z'
loop_
 _atom_site_type_symbol
 _atom_site_label
 _atom_site_symmetry_multiplicity
 _atom_site_fract_x
 _atom_site_fract_y
 _atom_site_fract_z
 _atom_site_occupancy
  Si  Si0  1  0.31698606  0.03250283  0.32168697  1
  Si  Si1  1  0.03250283  0.31698606  0.67831303  1
  Si  Si2  1  0.46749717  0.18301394  0.17831303  1
  Si  Si3  1  0.18301394  0.46749717  0.82168697  1
  Si  Si4  1  0.68301394  0.96749717  0.67831303  1
  Si  Si5  1  0.96749717  0.68301394  0.32168697  1
  Si  Si6  1  0.53250283  0.81698606  0.82168697  1
  Si  Si7  1  0.81698606  0.53250283  0.17831303  1
  Si  Si8  1  0.17500397  0.16760363  0.08182627  1
  Si  Si9  1  0.16760363  0.17500397  0.91817373  1
  Si  Si10  1  0.33239637  0.32499603  0.41817373  1
  Si  Si11  1  0.32499603  0.33239637  0.58182627  1
  Si  Si12  1  0.82499603  0.83239637  0.91817373  1
  Si  Si13  1  0.83239637  0.82499603  0.08182627  1
  Si  Si14  1  0.66760363  0.67500397  0.58182627  1
  Si  Si15  1  0.67500397  0.66760363  0.41817373  1
  Si  Si16  1  0.17250810  0.48211051  0.32019309  1
  Si  Si17  1  0.48211051  0.17250810  0.67980691  1
  Si  Si18  1  0.01788949  0.32749190  0.17980691  1
  Si  Si19  1  0.32749190  0.01788949  0.82019309  1
  Si  Si20  1  0.82749190  0.51788949  0.67980691  1
  Si  Si21  1  0.51788949  0.82749190  0.32019309  1
  Si  Si22  1  0.98211051  0.67250810  0.82019309  1
  Si  Si23  1  0.67250810  0.98211051  0.17980691  1
  O  O24  1  0.35968790  0.14031210  0.25000000  1
  O  O25  1  0.14031210  0.35968790  0.75000000  1
  O  O26  1  0.64031210  0.85968790  0.75000000  1
  O  O27  1  0.85968790  0.64031210  0.25000000  1
  O  O28  1  0.13416496  0.86583504  0.31487951  1
  O  O29  1  0.86583504  0.13416496  0.68512049  1
  O  O30  1  0.63416496  0.36583504  0.18512049  1
  O  O31  1  0.36583504  0.63416496  0.81487951  1
  O  O32  1  0.46550734  0.97693653  0.33739408  1
  O  O33  1  0.97693553  0.46550734  0.66260592  1
  O  O34  1  0.52306447  0.03449266  0.16260592  1
  O  O35  1  0.03449266  0.52306447  0.83739408  1
  O  O36  1  0.53449266  0.02306447  0.66260592  1
  O  O37  1  0.02306447  0.53449266  0.33739408  1
  O  O38  1  0.47693553  0.96550734  0.83739408  1
  O  O39  1  0.96550734  0.47693553  0.16260592  1
  O  O40  1  0.31303630  0.14983715  0.38474384  1
  O  O41  1  0.14983715  0.31303630  0.61525616  1
  O  O42  1  0.35016285  0.18696370  0.11525616  1
  O  O43  1  0.18696370  0.35016285  0.88474384  1
  O  O44  1  0.68696370  0.85016285  0.61525616  1
  O  O45  1  0.85016285  0.68696370  0.38474384  1
  O  O46  1  0.64983715  0.81303630  0.88474384  1
  O  O47  1  0.81303630  0.64983715  0.11525616  1
  O  O48  1  0.12460493  0.30663960  0.11575667  1
  O  O49  1  0.30663960  0.12460493  0.88424333  1
  O  O50  1  0.19336040  0.37539507  0.38424333  1
  O  O51  1  0.37539507  0.19336040  0.61575667  1
  O  O52  1  0.87539507  0.69336040  0.88424333  1
  O  O53  1  0.69336040  0.87539507  0.11575667  1
  O  O54  1  0.80663960  0.62460493  0.61575667  1
  O  O55  1  0.62460493  0.80663960  0.38424333  1
  O  O56  1  0.20418365  0.20418365  0.00000000  1
  O  O57  1  0.29581635  0.29581635  0.50000000  1
  O  O58  1  0.79581635  0.79581635  0.00000000  1
  O  O59  1  0.70418365  0.70418365  0.50000000  1
  O  O60  1  0.02386049  0.97613951  0.09565676  1
  O  O61  1  0.97613951  0.02386049  0.90434324  1
  O  O62  1  0.52386049  0.47613951  0.40434324  1
  O  O63  1  0.47613951  0.52386049  0.59565676  1
  O  O64  1  0.12974587  0.37025413  0.25000000  1
  O  O65  1  0.37025413  0.12974587  0.75000000  1
  O  O66  1  0.87025413  0.62974587  0.75000000  1
  O  O67  1  0.62974587  0.87025413  0.25000000  1
  O  O68  1  0.34828595  0.65171405  0.30731035  1
  O  O69  1  0.65171405  0.34828595  0.69268965  1
  O  O70  1  0.84828595  0.15171405  0.19268965  1
  O  O71  1  0.15171405  0.84828595  0.80731035  1
