# generated using pymatgen
data_SiO2
_symmetry_space_group_name_H-M   'P 1'
_cell_length_a   5.23705395
_cell_length_b   22.45374876
_cell_length_c   13.97235134
_cell_angle_alpha   90.00000000
_cell_angle_beta   90.00000000
_cell_angle_gamma   90.00000000
_symmetry_Int_Tables_number   1
_chemical_formula_structural   SiO2
_chemical_formula_sum   'Si28 O56'
_cell_volume   1643.02966368
_cell_formula_units_Z   28
loop_
 _symmetry_equiv_pos_site_id
 _symmetry_equiv_pos_as_xyz
  1  'x, y, z'
loop_
 _atom_site_type_symbol
 _atom_site_label
 _atom_site_symmetry_multiplicity
 _atom_site_fract_x
 _atom_site_fract_y
 _atom_site_fract_z
 _atom_site_occupancy
  Si  Si0  1  0.75000000  0.75000000  0.14454905  1
  Si  Si1  1  0.25000000  0.25000000  0.85545095  1
  Si  Si2  1  0.25000000  0.75000000  0.01189640  1
  Si  Si3  1  0.75000000  0.25000000  0.98810360  1
  Si  Si4  1  0.75000000  0.62176746  0.22564109  1
  Si  Si5  1  0.25000000  0.37823254  0.77435891  1
  Si  Si6  1  0.25000000  0.12176746  0.77435891  1
  Si  Si7  1  0.75000000  0.87823254  0.22564109  1
  Si  Si8  1  0.75000000  0.54952348  0.40468969  1
  Si  Si9  1  0.25000000  0.45047652  0.59531031  1
  Si  Si10  1  0.25000000  0.04952348  0.59531031  1
  Si  Si11  1  0.75000000  0.95047652  0.40468969  1
  Si  Si12  1  0.75000000  0.37831729  0.07974073  1
  Si  Si13  1  0.25000000  0.62168271  0.92025927  1
  Si  Si14  1  0.25000000  0.87831729  0.92025927  1
  Si  Si15  1  0.75000000  0.12168271  0.07974073  1
  Si  Si16  1  0.25000000  0.46926349  0.38474730  1
  Si  Si17  1  0.75000000  0.53073651  0.61525270  1
  Si  Si18  1  0.75000000  0.96926349  0.61525270  1
  Si  Si19  1  0.25000000  0.03073651  0.38474730  1
  Si  Si20  1  0.25000000  0.42671684  0.17926194  1
  Si  Si21  1  0.75000000  0.57328316  0.82073806  1
  Si  Si22  1  0.75000000  0.92671684  0.82073806  1
  Si  Si23  1  0.25000000  0.07328316  0.17926194  1
  Si  Si24  1  0.25000000  0.56563187  0.12789905  1
  Si  Si25  1  0.75000000  0.43436813  0.87210095  1
  Si  Si26  1  0.75000000  0.06563187  0.87210095  1
  Si  Si27  1  0.25000000  0.93436813  0.12789905  1
  O  O28  1  0.75000000  0.80742063  0.21272775  1
  O  O29  1  0.25000000  0.19257937  0.78727225  1
  O  O30  1  0.25000000  0.30742063  0.78727225  1
  O  O31  1  0.75000000  0.69257937  0.21272775  1
  O  O32  1  -0.00009745  0.75000000  0.07826024  1
  O  O33  1  0.49990255  0.25000000  0.92173976  1
  O  O34  1  0.00009745  0.25000000  0.92173976  1
  O  O35  1  0.50009745  0.75000000  0.07826024  1
  O  O36  1  0.25000000  0.69150003  0.94588396  1
  O  O37  1  0.75000000  0.30849997  0.05411604  1
  O  O38  1  0.75000000  0.19150003  0.05411604  1
  O  O39  1  0.25000000  0.80849997  0.94588396  1
  O  O40  1  0.75000000  0.60833273  0.33909056  1
  O  O41  1  0.25000000  0.39166727  0.66090944  1
  O  O42  1  0.25000000  0.10833273  0.66090944  1
  O  O43  1  0.75000000  0.89166727  0.33909056  1
  O  O44  1  0.99942374  0.59347573  0.17657728  1
  O  O45  1  0.49942374  0.40652427  0.82342272  1
  O  O46  1  0.00057626  0.09347573  0.82342272  1
  O  O47  1  0.50057626  0.90652427  0.17657728  1
  O  O48  1  0.00057626  0.40652427  0.82342272  1
  O  O49  1  0.50057626  0.59347573  0.17657728  1
  O  O50  1  0.99942374  0.90652427  0.17657728  1
  O  O51  1  0.49942374  0.09347573  0.82342272  1
  O  O52  1  0.75000000  0.56831597  0.51641191  1
  O  O53  1  0.25000000  0.43168403  0.48358809  1
  O  O54  1  0.25000000  0.06831597  0.48358809  1
  O  O55  1  0.75000000  0.93168403  0.51641191  1
  O  O56  1  -0.00011095  0.51076854  0.38015551  1
  O  O57  1  0.49988905  0.48923146  0.61984449  1
  O  O58  1  0.00011095  0.01076854  0.61984449  1
  O  O59  1  0.50011095  0.98923146  0.38015551  1
  O  O60  1  0.00011095  0.48923146  0.61984449  1
  O  O61  1  0.50011095  0.51076854  0.38015551  1
  O  O62  1  -0.00011095  0.98923146  0.38015551  1
  O  O63  1  0.49988905  0.01076854  0.61984449  1
  O  O64  1  0.75000000  0.41903903  0.98455964  1
  O  O65  1  0.25000000  0.58096097  0.01544036  1
  O  O66  1  0.25000000  0.91903903  0.01544036  1
  O  O67  1  0.75000000  0.08096097  0.98455964  1
  O  O68  1  0.49979466  0.39281212  0.14161762  1
  O  O69  1  0.99979466  0.60718788  0.85838238  1
  O  O70  1  0.50020534  0.89281212  0.85838238  1
  O  O71  1  0.00020534  0.10718788  0.14161762  1
  O  O72  1  0.50020534  0.60718788  0.85838238  1
  O  O73  1  0.00020534  0.39281212  0.14161762  1
  O  O74  1  0.49979466  0.10718788  0.14161762  1
  O  O75  1  0.99979466  0.89281212  0.85838238  1
  O  O76  1  0.25000000  0.42471205  0.29489121  1
  O  O77  1  0.75000000  0.57528795  0.70510879  1
  O  O78  1  0.75000000  0.92471205  0.70510879  1
  O  O79  1  0.25000000  0.07528795  0.29489121  1
  O  O80  1  0.25000000  0.49458089  0.14142191  1
  O  O81  1  0.75000000  0.50541911  0.85857809  1
  O  O82  1  0.75000000  0.99458089  0.85857809  1
  O  O83  1  0.25000000  0.00541911  0.14142191  1
