# generated using pymatgen
data_SiO2
_symmetry_space_group_name_H-M   'P 1'
_cell_length_a   11.40781991
_cell_length_b   11.40781991
_cell_length_c   9.71571105
_cell_angle_alpha   90.00000000
_cell_angle_beta   90.00000000
_cell_angle_gamma   105.67593475
_symmetry_Int_Tables_number   1
_chemical_formula_structural   SiO2
_chemical_formula_sum   'Si24 O48'
_cell_volume   1217.35819487
_cell_formula_units_Z   24
loop_
 _symmetry_equiv_pos_site_id
 _symmetry_equiv_pos_as_xyz
  1  'x, y, z'
loop_
 _atom_site_type_symbol
 _atom_site_label
 _atom_site_symmetry_multiplicity
 _atom_site_fract_x
 _atom_site_fract_y
 _atom_site_fract_z
 _atom_site_occupancy
  Si  Si0  1  0.48395770  0.65660044  0.37166388  1
  Si  Si1  1  0.34339956  0.51604230  0.62833612  1
  Si  Si2  1  0.15660044  0.98395770  0.12833612  1
  Si  Si3  1  0.01604230  0.84339956  0.87166388  1
  Si  Si4  1  0.51604230  0.34339956  0.62833612  1
  Si  Si5  1  0.65660044  0.48395770  0.37166388  1
  Si  Si6  1  0.84339956  0.01604230  0.87166388  1
  Si  Si7  1  0.98395770  0.15660044  0.12833612  1
  Si  Si8  1  0.35633777  0.71323007  0.84228595  1
  Si  Si9  1  0.28676993  0.64366223  0.15771405  1
  Si  Si10  1  0.21323007  0.85633777  0.65771405  1
  Si  Si11  1  0.14366223  0.78676993  0.34228595  1
  Si  Si12  1  0.64366223  0.28676993  0.15771405  1
  Si  Si13  1  0.71323007  0.35633777  0.84228595  1
  Si  Si14  1  0.78676993  0.14366223  0.34228595  1
  Si  Si15  1  0.85633777  0.21323007  0.65771405  1
  Si  Si16  1  0.44092929  0.04669133  0.13010811  1
  Si  Si17  1  0.95330867  0.55907071  0.86989189  1
  Si  Si18  1  0.54669133  0.94092929  0.36989189  1
  Si  Si19  1  0.05907071  0.45330867  0.63010811  1
  Si  Si20  1  0.55907071  0.95330867  0.86989189  1
  Si  Si21  1  0.04669133  0.44092929  0.13010811  1
  Si  Si22  1  0.45330867  0.05907071  0.63010811  1
  Si  Si23  1  0.94092929  0.54669133  0.36989189  1
  O  O24  1  0.41119628  0.63023246  0.22692102  1
  O  O25  1  0.36976754  0.58880272  0.77307898  1
  O  O26  1  0.13023246  0.91119728  0.27307898  1
  O  O27  1  0.08880272  0.86976754  0.72692102  1
  O  O28  1  0.58880372  0.36976754  0.77307898  1
  O  O29  1  0.63023246  0.41119728  0.22692102  1
  O  O30  1  0.86976754  0.08880272  0.72692102  1
  O  O31  1  0.91119628  0.13023246  0.27307898  1
  O  O32  1  0.39506375  0.60493625  0.50000000  1
  O  O33  1  0.10493625  0.89506375  -0.00000000  1
  O  O34  1  0.60493625  0.39506375  0.50000000  1
  O  O35  1  0.89506375  0.10493625  -0.00000000  1
  O  O36  1  0.59379323  0.59379323  0.36711947  1
  O  O37  1  0.40620677  0.40620677  0.63288053  1
  O  O38  1  0.09379323  0.09379323  0.13288053  1
  O  O39  1  0.90620677  0.90620677  0.86711947  1
  O  O40  1  0.54025003  0.80051662  0.39394240  1
  O  O41  1  0.19948338  0.45974997  0.60605760  1
  O  O42  1  0.30051662  0.04025003  0.10605760  1
  O  O43  1  0.95974997  0.69948338  0.89394240  1
  O  O44  1  0.45974997  0.19948338  0.60605760  1
  O  O45  1  0.80051662  0.54025003  0.39394240  1
  O  O46  1  0.69948338  0.95974997  0.89394240  1
  O  O47  1  0.04025003  0.30051662  0.10605760  1
  O  O48  1  0.48685279  0.81377671  0.83682887  1
  O  O49  1  0.18622329  0.51314721  0.16317113  1
  O  O50  1  0.31377671  0.98685279  0.66317113  1
  O  O51  1  0.01314721  0.68622329  0.33682887  1
  O  O52  1  0.51314721  0.18622329  0.16317113  1
  O  O53  1  0.81377671  0.48685279  0.83682887  1
  O  O54  1  0.68622329  0.01314721  0.33682887  1
  O  O55  1  0.98685279  0.31377671  0.66317113  1
  O  O56  1  0.26061061  0.76061061  0.75000000  1
  O  O57  1  0.23938939  0.73938939  0.25000000  1
  O  O58  1  0.73938939  0.23938939  0.25000000  1
  O  O59  1  0.76061061  0.26061061  0.75000000  1
  O  O60  1  0.31006192  0.68993808  -0.00000000  1
  O  O61  1  0.18993808  0.81006192  0.50000000  1
  O  O62  1  0.68993808  0.31006192  -0.00000000  1
  O  O63  1  0.81006192  0.18993808  0.50000000  1
  O  O64  1  0.50000000  0.00000000  -0.00000000  1
  O  O65  1  0.00000000  0.50000000  -0.00000000  1
  O  O66  1  0.50000000  0.00000000  0.50000000  1
  O  O67  1  0.00000000  0.50000000  0.50000000  1
  O  O68  1  0.45401199  0.95401199  0.25000000  1
  O  O69  1  0.04598801  0.54598801  0.75000000  1
  O  O70  1  0.54598801  0.04598801  0.75000000  1
  O  O71  1  0.95401199  0.45401199  0.25000000  1
