# generated using pymatgen
data_SiO2
_symmetry_space_group_name_H-M   'P 1'
_cell_length_a   12.44734472
_cell_length_b   12.44734472
_cell_length_c   12.55000624
_cell_angle_alpha   90.00000000
_cell_angle_beta   90.00000000
_cell_angle_gamma   124.31872459
_symmetry_Int_Tables_number   1
_chemical_formula_structural   SiO2
_chemical_formula_sum   'Si28 O56'
_cell_volume   1605.95084937
_cell_formula_units_Z   28
loop_
 _symmetry_equiv_pos_site_id
 _symmetry_equiv_pos_as_xyz
  1  'x, y, z'
loop_
 _atom_site_type_symbol
 _atom_site_label
 _atom_site_symmetry_multiplicity
 _atom_site_fract_x
 _atom_site_fract_y
 _atom_site_fract_z
 _atom_site_occupancy
  Si  Si0  1  0.50958949  0.22531473  0.50000000  1
  Si  Si1  1  0.77468527  0.49041051  0.50000000  1
  Si  Si2  1  0.66899589  0.06275102  0.87838027  1
  Si  Si3  1  0.93724898  0.33100411  0.12161973  1
  Si  Si4  1  0.66899589  0.06275102  0.12161973  1
  Si  Si5  1  0.93724898  0.33100411  0.87838027  1
  Si  Si6  1  0.61052784  0.88661731  0.68544316  1
  Si  Si7  1  0.11338269  0.38947216  0.31455684  1
  Si  Si8  1  0.61052784  0.88661731  0.31455684  1
  Si  Si9  1  0.11338269  0.38947216  0.68544316  1
  Si  Si10  1  0.65424695  0.07929243  0.50000000  1
  Si  Si11  1  0.92070757  0.34575305  0.50000000  1
  Si  Si12  1  0.53184504  0.20639268  0.87400626  1
  Si  Si13  1  0.79360732  0.46815496  0.12599374  1
  Si  Si14  1  0.53184504  0.20639268  0.12599374  1
  Si  Si15  1  0.79360732  0.46815496  0.87400626  1
  Si  Si16  1  0.89491617  0.67568296  0.69891957  1
  Si  Si17  1  0.32431704  0.10508383  0.30108043  1
  Si  Si18  1  0.89491617  0.67568296  0.30108043  1
  Si  Si19  1  0.32431704  0.10508383  0.69891957  1
  Si  Si20  1  0.85375999  0.88393981  0.62363835  1
  Si  Si21  1  0.11606019  0.14624001  0.37636165  1
  Si  Si22  1  0.85375999  0.88393981  0.37636165  1
  Si  Si23  1  0.11606019  0.14624001  0.62363835  1
  Si  Si24  1  0.32970785  0.67029215  0.62383908  1
  Si  Si25  1  0.32970785  0.67029215  0.37616092  1
  Si  Si26  1  0.18423963  0.81576037  0.62411067  1
  Si  Si27  1  0.18423963  0.81576037  0.37588933  1
  O  O28  1  0.04539879  0.72779235  0.68261542  1
  O  O29  1  0.27220765  0.95460121  0.31738458  1
  O  O30  1  0.04539879  0.72779235  0.31738458  1
  O  O31  1  0.27220765  0.95460121  0.68261542  1
  O  O32  1  0.96369169  0.03630831  0.64480094  1
  O  O33  1  0.96369169  0.03630831  0.35519906  1
  O  O34  1  0.88105414  0.79679007  0.69845632  1
  O  O35  1  0.20320993  0.11894586  0.30154368  1
  O  O36  1  0.88105414  0.79679007  0.30154368  1
  O  O37  1  0.20320993  0.11894586  0.69845632  1
  O  O38  1  0.61755493  0.99144033  0.60498497  1
  O  O39  1  0.00855967  0.38244507  0.39501503  1
  O  O40  1  0.61755493  0.99144033  0.39501503  1
  O  O41  1  0.00855967  0.38244507  0.60498497  1
  O  O42  1  0.64382608  0.35617392  0.84364202  1
  O  O43  1  0.64382608  0.35617392  0.15635798  1
  O  O44  1  0.50325291  0.19563436  0.00000000  1
  O  O45  1  0.80436564  0.49674709  0.00000000  1
  O  O46  1  0.71388608  0.85473199  0.65095198  1
  O  O47  1  0.14526801  0.28611392  0.34904802  1
  O  O48  1  0.71388608  0.85473199  0.34904802  1
  O  O49  1  0.14526801  0.28611392  0.65095198  1
  O  O50  1  0.63918474  0.94388698  0.80457405  1
  O  O51  1  0.05611302  0.36081526  0.19542595  1
  O  O52  1  0.63918474  0.94388698  0.19542595  1
  O  O53  1  0.05611302  0.36081526  0.80457405  1
  O  O54  1  0.46804938  0.75393355  0.68253086  1
  O  O55  1  0.24606645  0.53195062  0.31746914  1
  O  O56  1  0.46804938  0.75393355  0.31746914  1
  O  O57  1  0.24606645  0.53195062  0.68253086  1
  O  O58  1  0.58152611  0.11515034  0.84182767  1
  O  O59  1  0.88484966  0.41847389  0.15817233  1
  O  O60  1  0.58152611  0.11515034  0.15817233  1
  O  O61  1  0.88484966  0.41847389  0.84182767  1
  O  O62  1  0.85821472  0.84930665  0.50000000  1
  O  O63  1  0.15069335  0.14178528  0.50000000  1
  O  O64  1  0.84270214  0.60055915  0.81109976  1
  O  O65  1  0.39944085  0.15729786  0.18890024  1
  O  O66  1  0.84270214  0.60055915  0.18890024  1
  O  O67  1  0.39944085  0.15729786  0.81109976  1
  O  O68  1  0.62207496  0.37792504  0.50000000  1
  O  O69  1  0.63545897  0.01282120  0.00000000  1
  O  O70  1  0.98717880  0.36454103  0.00000000  1
  O  O71  1  0.42275915  0.19245726  0.39530047  1
  O  O72  1  0.80754274  0.57724085  0.60469953  1
  O  O73  1  0.42275915  0.19245726  0.60469953  1
  O  O74  1  0.80754274  0.57724085  0.39530047  1
  O  O75  1  0.25682883  0.74317117  0.63178585  1
  O  O76  1  0.25682883  0.74317117  0.36821415  1
  O  O77  1  0.80809213  0.19190787  0.50000000  1
  O  O78  1  0.57178543  0.14185153  0.50000000  1
  O  O79  1  0.85814847  0.42821457  0.50000000  1
  O  O80  1  0.82104234  0.17895766  0.86832050  1
  O  O81  1  0.82104234  0.17895766  0.13167950  1
  O  O82  1  0.34954545  0.65045455  0.50000000  1
  O  O83  1  0.16331087  0.83668913  0.50000000  1
