# generated using pymatgen
data_SiO2
_symmetry_space_group_name_H-M   'P 1'
_cell_length_a   9.79074992
_cell_length_b   9.79074992
_cell_length_c   10.11435594
_cell_angle_alpha   90.00000000
_cell_angle_beta   90.00000000
_cell_angle_gamma   90.00000000
_symmetry_Int_Tables_number   1
_chemical_formula_structural   SiO2
_chemical_formula_sum   'Si16 O32'
_cell_volume   969.54986131
_cell_formula_units_Z   16
loop_
 _symmetry_equiv_pos_site_id
 _symmetry_equiv_pos_as_xyz
  1  'x, y, z'
loop_
 _atom_site_type_symbol
 _atom_site_label
 _atom_site_symmetry_multiplicity
 _atom_site_fract_x
 _atom_site_fract_y
 _atom_site_fract_z
 _atom_site_occupancy
  Si  Si0  1  0.15892512  0.59107488  0.12500000  1
  Si  Si1  1  0.65892512  0.90892512  0.37500000  1
  Si  Si2  1  0.84107488  0.09107488  0.87500000  1
  Si  Si3  1  0.15892512  0.40892512  0.87500000  1
  Si  Si4  1  0.84107488  0.90892512  0.12500000  1
  Si  Si5  1  0.65892512  0.09107488  0.62500000  1
  Si  Si6  1  0.84107488  0.40892512  0.87500000  1
  Si  Si7  1  0.34107488  0.09107488  0.62500000  1
  Si  Si8  1  0.15892512  0.90892512  0.12500000  1
  Si  Si9  1  0.84107488  0.59107488  0.12500000  1
  Si  Si10  1  0.15892512  0.09107488  0.87500000  1
  Si  Si11  1  0.34107488  0.90892512  0.37500000  1
  Si  Si12  1  0.34107488  0.59107488  0.37500000  1
  Si  Si13  1  0.34107488  0.40892512  0.62500000  1
  Si  Si14  1  0.65892512  0.40892512  0.62500000  1
  Si  Si15  1  0.65892512  0.59107488  0.37500000  1
  O  O16  1  -0.00000000  0.56593559  0.15994069  1
  O  O17  1  0.68406441  0.75000000  0.40994069  1
  O  O18  1  0.81593559  0.25000000  0.90994069  1
  O  O19  1  -0.00000000  0.43406441  0.84005931  1
  O  O20  1  -0.00000000  0.06593559  0.84005931  1
  O  O21  1  -0.00000000  0.93406441  0.15994069  1
  O  O22  1  0.81593559  0.75000000  0.09005931  1
  O  O23  1  0.68406441  0.25000000  0.59005931  1
  O  O24  1  0.31593559  0.25000000  0.59005931  1
  O  O25  1  0.18406441  0.75000000  0.09005931  1
  O  O26  1  0.18406441  0.25000000  0.90994069  1
  O  O27  1  0.31593559  0.75000000  0.40994069  1
  O  O28  1  0.50000000  0.06593559  0.65994069  1
  O  O29  1  0.50000000  0.93406441  0.34005931  1
  O  O30  1  0.50000000  0.56593559  0.34005931  1
  O  O31  1  0.50000000  0.43406441  0.65994069  1
  O  O32  1  0.25000000  0.54694616  0.25000000  1
  O  O33  1  0.70305384  -0.00000000  0.50000000  1
  O  O34  1  0.79694616  -0.00000000  0.00000000  1
  O  O35  1  0.25000000  0.45305384  0.75000000  1
  O  O36  1  0.75000000  0.04694616  0.75000000  1
  O  O37  1  0.75000000  0.95305384  0.25000000  1
  O  O38  1  0.75000000  0.45305384  0.75000000  1
  O  O39  1  0.29694616  -0.00000000  0.50000000  1
  O  O40  1  0.20305384  -0.00000000  0.00000000  1
  O  O41  1  0.75000000  0.54694616  0.25000000  1
  O  O42  1  0.25000000  0.95305384  0.25000000  1
  O  O43  1  0.25000000  0.04694616  0.75000000  1
  O  O44  1  0.20305384  0.50000000  0.00000000  1
  O  O45  1  0.29694616  0.50000000  0.50000000  1
  O  O46  1  0.79694616  0.50000000  0.00000000  1
  O  O47  1  0.70305384  0.50000000  0.50000000  1
