# generated using pymatgen
data_SiO2
_symmetry_space_group_name_H-M   'P 1'
_cell_length_a   14.29050876
_cell_length_b   7.16483369
_cell_length_c   9.05788454
_cell_angle_alpha   90.00000000
_cell_angle_beta   90.00000000
_cell_angle_gamma   90.00000000
_symmetry_Int_Tables_number   1
_chemical_formula_structural   SiO2
_chemical_formula_sum   'Si16 O32'
_cell_volume   927.42881453
_cell_formula_units_Z   16
loop_
 _symmetry_equiv_pos_site_id
 _symmetry_equiv_pos_as_xyz
  1  'x, y, z'
loop_
 _atom_site_type_symbol
 _atom_site_label
 _atom_site_symmetry_multiplicity
 _atom_site_fract_x
 _atom_site_fract_y
 _atom_site_fract_z
 _atom_site_occupancy
  Si  Si0  1  0.14043887  0.21577293  0.34246433  1
  Si  Si1  1  0.64043887  0.78422707  0.65753567  1
  Si  Si2  1  0.85956113  0.21577293  0.65753567  1
  Si  Si3  1  0.35956113  0.78422707  0.34246433  1
  Si  Si4  1  0.85956113  0.78422707  0.65753567  1
  Si  Si5  1  0.35956113  0.21577293  0.34246433  1
  Si  Si6  1  0.14043887  0.78422707  0.34246433  1
  Si  Si7  1  0.64043887  0.21577293  0.65753567  1
  Si  Si8  1  0.14229214  0.50000000  0.59733036  1
  Si  Si9  1  0.64229214  0.50000000  0.40266964  1
  Si  Si10  1  0.85770786  0.50000000  0.40266964  1
  Si  Si11  1  0.35770786  0.50000000  0.59733036  1
  Si  Si12  1  0.02100537  0.50000000  0.17265432  1
  Si  Si13  1  0.52100537  0.50000000  0.82734568  1
  Si  Si14  1  0.97899463  0.50000000  0.82734568  1
  Si  Si15  1  0.47899463  0.50000000  0.17265432  1
  O  O16  1  0.07994360  0.31509607  0.21480988  1
  O  O17  1  0.57994360  0.68490393  0.78519012  1
  O  O18  1  0.92005640  0.31509607  0.78519012  1
  O  O19  1  0.42005640  0.68490393  0.21480988  1
  O  O20  1  0.92005640  0.68490393  0.78519012  1
  O  O21  1  0.42005640  0.31509607  0.21480988  1
  O  O22  1  0.07994360  0.68490393  0.21480988  1
  O  O23  1  0.57994360  0.31509607  0.78519012  1
  O  O24  1  0.11112581  0.00000000  0.35462358  1
  O  O25  1  0.61112581  0.00000000  0.64537642  1
  O  O26  1  0.88887419  0.00000000  0.64537642  1
  O  O27  1  0.38887419  0.00000000  0.35462358  1
  O  O28  1  0.12087098  0.31567958  0.49965735  1
  O  O29  1  0.62087098  0.68432042  0.50034265  1
  O  O30  1  0.87912902  0.31567958  0.50034265  1
  O  O31  1  0.37912902  0.68432042  0.49965735  1
  O  O32  1  0.87912902  0.68432042  0.50034265  1
  O  O33  1  0.37912902  0.31567958  0.49965735  1
  O  O34  1  0.12087098  0.68432042  0.49965735  1
  O  O35  1  0.62087098  0.31567958  0.50034265  1
  O  O36  1  0.25000000  0.23469454  0.30090615  1
  O  O37  1  0.75000000  0.76530546  0.69909385  1
  O  O38  1  0.75000000  0.23469454  0.69909385  1
  O  O39  1  0.25000000  0.76530546  0.30090615  1
  O  O40  1  0.07714866  0.50000000  0.74041419  1
  O  O41  1  0.57714866  0.50000000  0.25958581  1
  O  O42  1  0.92285134  0.50000000  0.25958581  1
  O  O43  1  0.42285134  0.50000000  0.74041419  1
  O  O44  1  0.25000000  0.50000000  0.64987726  1
  O  O45  1  0.75000000  0.50000000  0.35012274  1
  O  O46  1  -0.00000000  0.50000000  0.00000000  1
  O  O47  1  0.50000000  0.50000000  0.00000000  1
