# generated using pymatgen
data_SiO2
_symmetry_space_group_name_H-M   'P 1'
_cell_length_a   8.57923070
_cell_length_b   8.57923070
_cell_length_c   14.00437516
_cell_angle_alpha   90.00000000
_cell_angle_beta   90.00000000
_cell_angle_gamma   110.02721719
_symmetry_Int_Tables_number   1
_chemical_formula_structural   SiO2
_chemical_formula_sum   'Si16 O32'
_cell_volume   968.43639397
_cell_formula_units_Z   16
loop_
 _symmetry_equiv_pos_site_id
 _symmetry_equiv_pos_as_xyz
  1  'x, y, z'
loop_
 _atom_site_type_symbol
 _atom_site_label
 _atom_site_symmetry_multiplicity
 _atom_site_fract_x
 _atom_site_fract_y
 _atom_site_fract_z
 _atom_site_occupancy
  Si  Si0  1  0.05064110  0.26698890  0.98197902  1
  Si  Si1  1  0.26698890  0.05064110  0.01802098  1
  Si  Si2  1  0.73301110  0.94935890  0.51802098  1
  Si  Si3  1  0.94935890  0.73301110  0.48197902  1
  Si  Si4  1  0.94935890  0.73301110  0.01802098  1
  Si  Si5  1  0.73301110  0.94935890  0.98197902  1
  Si  Si6  1  0.26698890  0.05064110  0.48197902  1
  Si  Si7  1  0.05064110  0.26698890  0.51802098  1
  Si  Si8  1  0.89285255  0.42021072  0.13982017  1
  Si  Si9  1  0.42021072  0.89285255  0.86017983  1
  Si  Si10  1  0.57978928  0.10714745  0.36017983  1
  Si  Si11  1  0.10714745  0.57978928  0.63982017  1
  Si  Si12  1  0.10714745  0.57978928  0.86017983  1
  Si  Si13  1  0.57978928  0.10714745  0.13982017  1
  Si  Si14  1  0.42021072  0.89285255  0.63982017  1
  Si  Si15  1  0.89285255  0.42021072  0.36017983  1
  O  O16  1  0.88793592  0.11206408  0.95350509  1
  O  O17  1  0.11206408  0.88793592  0.04649491  1
  O  O18  1  0.88793592  0.11206408  0.54649491  1
  O  O19  1  0.11206408  0.88793592  0.45350509  1
  O  O20  1  0.01659287  0.35436730  0.07808021  1
  O  O21  1  0.35436730  0.01659287  0.92191979  1
  O  O22  1  0.64563270  0.98340713  0.42191979  1
  O  O23  1  0.98340713  0.64563270  0.57808021  1
  O  O24  1  0.98340713  0.64563270  0.92191979  1
  O  O25  1  0.64563270  0.98340713  0.07808021  1
  O  O26  1  0.35436730  0.01659287  0.57808021  1
  O  O27  1  0.01659287  0.35436730  0.42191979  1
  O  O28  1  0.20487172  0.20487172  -0.00000000  1
  O  O29  1  0.79512828  0.79512828  0.50000000  1
  O  O30  1  0.79512828  0.79512828  -0.00000000  1
  O  O31  1  0.20487172  0.20487172  0.50000000  1
  O  O32  1  0.09539746  0.39762919  0.89519756  1
  O  O33  1  0.39762919  0.09539746  0.10480244  1
  O  O34  1  0.60237081  0.90460254  0.60480244  1
  O  O35  1  0.90460254  0.60237081  0.39519756  1
  O  O36  1  0.90460254  0.60237081  0.10480244  1
  O  O37  1  0.60237081  0.90460254  0.89519756  1
  O  O38  1  0.39762919  0.09539746  0.39519756  1
  O  O39  1  0.09539746  0.39762919  0.60480244  1
  O  O40  1  0.94751325  0.42759849  0.25000000  1
  O  O41  1  0.42759849  0.94751325  0.75000000  1
  O  O42  1  0.57240151  0.05248675  0.25000000  1
  O  O43  1  0.05248675  0.57240151  0.75000000  1
  O  O44  1  0.70387826  0.29612174  0.12695925  1
  O  O45  1  0.29612174  0.70387826  0.87304075  1
  O  O46  1  0.70387826  0.29612174  0.37304075  1
  O  O47  1  0.29612174  0.70387826  0.62695925  1
