# generated using pymatgen
data_AlPO4
_symmetry_space_group_name_H-M   'P 1'
_cell_length_a   5.17382640
_cell_length_b   12.68371152
_cell_length_c   12.67182069
_cell_angle_alpha   117.75569786
_cell_angle_beta   92.15478039
_cell_angle_gamma   91.69909318
_symmetry_Int_Tables_number   1
_chemical_formula_structural   AlPO4
_chemical_formula_sum   'Al6 P6 O24'
_cell_volume   734.32116354
_cell_formula_units_Z   6
loop_
 _symmetry_equiv_pos_site_id
 _symmetry_equiv_pos_as_xyz
  1  'x, y, z'
loop_
 _atom_site_type_symbol
 _atom_site_label
 _atom_site_symmetry_multiplicity
 _atom_site_fract_x
 _atom_site_fract_y
 _atom_site_fract_z
 _atom_site_occupancy
  Al  Al0  1  0.70971261  0.84170362  0.91906477  1
  Al  Al1  1  0.29028739  0.15829638  0.08093523  1
  Al  Al2  1  0.71746486  0.01177534  0.36610568  1
  Al  Al3  1  0.28253514  0.98822466  0.63389432  1
  Al  Al4  1  0.70614030  0.35748677  0.87676490  1
  Al  Al5  1  0.29385970  0.64251323  0.12323510  1
  P  P6  1  0.79313629  0.08008725  0.16316646  1
  P  P7  1  0.20686371  0.91991275  0.83683354  1
  P  P8  1  0.77343148  0.63460968  0.98160101  1
  P  P9  1  0.22656852  0.36539032  0.01839899  1
  P  P10  1  0.79464999  0.13070387  0.64440908  1
  P  P11  1  0.20535001  0.86929613  0.35559092  1
  O  O12  1  0.73565615  0.70277784  0.91115786  1
  O  O13  1  0.26434385  0.29722216  0.08884214  1
  O  O14  1  0.75847560  0.08858237  0.28511373  1
  O  O15  1  0.24152440  0.91141763  0.71488627  1
  O  O16  1  0.75710007  0.94939670  0.06814796  1
  O  O17  1  0.24289993  0.05060330  0.93185204  1
  O  O18  1  0.40373602  0.84641576  0.86181250  1
  O  O19  1  0.59626398  0.15358424  0.13818750  1
  O  O20  1  0.06365850  0.12980793  0.16286540  1
  O  O21  1  0.93634150  0.87019207  0.83713460  1
  O  O22  1  0.71441062  0.50256121  0.89707295  1
  O  O23  1  0.28558938  0.49743879  0.10292705  1
  O  O24  1  0.76400909  0.11234149  0.51700538  1
  O  O25  1  0.23599091  0.88765851  0.48299462  1
  O  O26  1  0.05281034  0.65590465  0.03179969  1
  O  O27  1  0.94718966  0.34409535  0.96820031  1
  O  O28  1  0.40797892  0.32290537  0.91557543  1
  O  O29  1  0.59202108  0.67709463  0.08442457  1
  O  O30  1  0.40308129  0.94940062  0.33603493  1
  O  O31  1  0.59691871  0.05059938  0.66396507  1
  O  O32  1  0.06525639  0.10045080  0.66946413  1
  O  O33  1  0.93474361  0.89954920  0.33053587  1
  O  O34  1  0.75359506  0.26082463  0.72868623  1
  O  O35  1  0.24640494  0.73917537  0.27131377  1
